=
 OpenBabel09172513283D

 28 31  0  0  1  0  0  0  0  0999 V2000
  -55.6970  -42.7600  -76.6400 C   0  0  2  0  0  3  0  0  0  0  0  0
  -54.3650  -43.1060  -76.3410 N   0  0  0  0  0  0  0  0  0  0  0  0
  -53.3610  -42.1040  -76.2470 C   0  0  0  0  0  0  0  0  0  0  0  0
  -52.1340  -42.3050  -75.5870 C   0  0  0  0  0  0  0  0  0  0  0  0
  -51.7990  -43.8940  -74.6060 Br  0  0  0  0  0  0  0  0  0  0  0  0
  -51.1280  -41.3300  -75.6120 C   0  0  0  0  0  3  0  0  0  0  0  0
  -51.3520  -40.1210  -76.2810 C   0  0  0  0  0  3  0  0  0  0  0  0
  -52.5610  -39.8970  -76.9410 C   0  0  0  0  0  0  0  0  0  0  0  0
  -52.7670  -38.3470  -77.6740 Cl  0  0  0  0  0  0  0  0  0  0  0  0
  -53.5460  -40.8960  -76.9380 C   0  0  0  0  0  0  0  0  0  0  0  0
  -54.8180  -40.7850  -77.6780 C   0  0  0  0  0  0  0  0  0  0  0  0
  -54.9060  -40.1430  -78.7170 O   0  0  0  0  0  0  0  0  0  0  0  0
  -56.0010  -41.5520  -77.1630 C   0  0  2  0  0  3  0  0  0  0  0  0
  -54.3050  -43.8230  -75.6040 H   0  0  0  0  0  0  0  0  0  0  0  0
  -56.8970  -43.8680  -75.8550 S   0  0  2  0  0  0  0  0  0  0  0  0
  -57.6570  -44.4660  -77.0080 O   0  0  0  0  0  0  0  0  0  0  0  0
  -58.0760  -42.8900  -74.8770 C   0  0  0  0  0  2  0  0  0  0  0  0
  -55.8760  -40.8490  -70.7290 C   0  0  0  0  0  1  0  0  0  0  0  0
  -56.6480  -41.2760  -71.9100 C   0  0  0  0  0  0  0  0  0  0  0  0
  -56.5030  -42.2640  -72.8550 C   0  0  0  0  0  3  0  0  0  0  0  0
  -57.6650  -42.1660  -73.6530 C   0  0  0  0  0  0  0  0  0  0  0  0
  -58.4260  -41.1330  -73.2520 N   0  0  0  0  0  0  0  0  0  0  0  0
  -57.7860  -40.5810  -72.1610 O   0  0  0  0  0  0  0  0  0  0  0  0
  -57.2690  -40.7700  -77.1660 C   0  0  0  0  0  0  0  0  0  0  0  0
  -57.4860  -39.9370  -76.3030 O   0  0  0  0  0  0  0  0  0  0  0  0
  -58.2360  -40.9870  -78.2590 C   0  0  0  0  0  3  0  0  0  0  0  0
  -59.5600  -40.2670  -78.2310 C   0  0  0  0  0  2  0  0  0  0  0  0
  -59.5180  -41.7510  -78.0290 C   0  0  0  0  0  2  0  0  0  0  0  0
  1  2  1  0  0  0  0
  1 15  1  1  0  0  0
  2  3  1  0  0  0  0
  2 14  1  0  0  0  0
  3  4  1  0  0  0  0
  4  5  1  0  0  0  0
  6  4  2  0  0  0  0
  7  6  1  0  0  0  0
  8 10  1  0  0  0  0
  8  7  2  0  0  0  0
  9  8  1  0  0  0  0
 10  3  2  0  0  0  0
 11 13  1  0  0  0  0
 11 10  1  0  0  0  0
 12 11  2  0  0  0  0
 13 24  1  1  0  0  0
 13  1  1  0  0  0  0
 15 16  2  6  0  0  0
 15 17  1  0  0  0  0
 17 21  1  0  0  0  0
 19 18  1  0  0  0  0
 20 19  2  0  0  0  0
 21 22  2  0  0  0  0
 21 20  1  0  0  0  0
 22 23  1  0  0  0  0
 23 19  1  0  0  0  0
 24 25  2  0  0  0  0
 26 27  1  0  0  0  0
 26 28  1  0  0  0  0
 26 24  1  0  0  0  0
 27 28  1  0  0  0  0
M  END
>  <MODEL>
1

>  <REMARK>
 VINA RESULT:    -7.532      0.000      0.000
 INTER + INTRA:         -10.597
 INTER:                  -9.734
 INTRA:                  -0.863
 UNBOUND:                -0.863
  Name = 
  6 active torsions:
  status: ('A' for Active; 'I' for Inactive)
    1  A    between atoms: C_1  and  C_2
    2  A    between atoms: C_4  and  C_5
    3  A    between atoms: C_5  and  S_6
    4  A    between atoms: S_6  and  C_8
    5  A    between atoms: C_20  and  C_21
    6  A    between atoms: C_21  and  C_23
                            x       y       z     vdW  Elec       q    Type
                         _______ _______ _______ _____ _____    ______ ____

>  <TORSDO>
F 5

$$$$
