REMARK VINA RESULT:    -5.928     12.205     14.896
REMARK INTER + INTRA:          -8.530
REMARK INTER:                  -7.599
REMARK INTRA:                  -0.931
REMARK UNBOUND:                -0.869
REMARK  Name = 
REMARK  6 active torsions:
REMARK  status: ('A' for Active; 'I' for Inactive)
REMARK    1  A    between atoms: C_1  and  C_2
REMARK    2  A    between atoms: C_4  and  C_5
REMARK    3  A    between atoms: C_5  and  S_6
REMARK    4  A    between atoms: S_6  and  C_8
REMARK    5  A    between atoms: C_20  and  C_21
REMARK    6  A    between atoms: C_21  and  C_23
REMARK                            x       y       z     vdW  Elec       q    Type
REMARK                         _______ _______ _______ _____ _____    ______ ____
ROOT
ATOM      1  C   UNL     1     -55.854 -43.369 -78.091  0.00  0.00    +0.000 A 
ATOM      2  N   UNL     1     -56.355 -44.426 -78.875  0.00  0.00    +0.000 N 
ATOM      3  C   UNL     1     -56.586 -45.707 -78.302  0.00  0.00    +0.000 A 
ATOM      4  C   UNL     1     -57.425 -46.672 -78.890  0.00  0.00    +0.000 A 
ATOM      5 BR   UNL     1     -58.464 -46.262 -80.423  0.00  0.00    +0.000 Br
ATOM      6  C   UNL     1     -57.538 -47.960 -78.350  0.00  0.00    +0.000 A 
ATOM      7  C   UNL     1     -56.828 -48.290 -77.189  0.00  0.00    +0.000 A 
ATOM      8  C   UNL     1     -55.992 -47.349 -76.587  0.00  0.00    +0.000 A 
ATOM      9 CL   UNL     1     -55.217 -47.830 -75.121  0.00  0.00    +0.000 Cl
ATOM     10  C   UNL     1     -55.859 -46.074 -77.158  0.00  0.00    +0.000 A 
ATOM     11  C   UNL     1     -54.936 -45.045 -76.643  0.00  0.00    +0.000 A 
ATOM     12  O   UNL     1     -53.887 -45.342 -76.084  0.00  0.00    +0.000 OA
ATOM     13  C   UNL     1     -55.277 -43.606 -76.892  0.00  0.00    +0.000 A 
ATOM     14  H   UNL     1     -57.100 -44.118 -79.514  0.00  0.00    +0.000 HD
ENDROOT
BRANCH   1  15
ATOM     15  S   UNL     1     -56.464 -41.751 -78.633  0.00  0.00    +0.000 S 
ATOM     16  O   UNL     1     -57.331 -42.062 -79.822  0.00  0.00    +0.000 OA
BRANCH  15  17
ATOM     17  C   UNL     1     -55.071 -40.745 -79.224  0.00  0.00    +0.000 C 
BRANCH  17  21
ATOM     18  C   UNL     1     -50.938 -42.834 -81.409  0.00  0.00    +0.000 C 
ATOM     19  C   UNL     1     -52.002 -42.194 -80.613  0.00  0.00    +0.000 A 
ATOM     20  C   UNL     1     -53.308 -41.840 -80.852  0.00  0.00    +0.000 A 
ATOM     21  C   UNL     1     -53.777 -41.352 -79.612  0.00  0.00    +0.000 A 
ATOM     22  N   UNL     1     -52.787 -41.349 -78.702  0.00  0.00    +0.000 NA
ATOM     23  O   UNL     1     -51.680 -41.878 -79.333  0.00  0.00    +0.000 OA
ENDBRANCH  17  21
ENDBRANCH  15  17
ENDBRANCH   1  15
BRANCH  13  24
ATOM     24  C   UNL     1     -55.074 -42.728 -75.705  0.00  0.00    +0.000 C 
ATOM     25  O   UNL     1     -53.958 -42.342 -75.403  0.00  0.00    +0.000 OA
BRANCH  24  26
ATOM     26  C   UNL     1     -56.252 -42.295 -74.930  0.00  0.00    +0.000 C 
ATOM     27  C   UNL     1     -56.177 -42.257 -73.426  0.00  0.00    +0.000 C 
ATOM     28  C   UNL     1     -57.046 -43.276 -74.099  0.00  0.00    +0.000 C 
ENDBRANCH  24  26
ENDBRANCH  13  24
TORSDOF 5
