REMARK  Name = 
REMARK  6 active torsions:
REMARK  status: ('A' for Active; 'I' for Inactive)
REMARK    1  A    between atoms: C_1  and  C_2
REMARK    2  A    between atoms: C_2  and  C_4
REMARK    3  A    between atoms: C_5  and  S_6
REMARK    4  A    between atoms: S_6  and  C_8
REMARK    5  A    between atoms: C_8  and  C_9
REMARK    6  A    between atoms: C_12  and  C_13
REMARK                            x       y       z     vdW  Elec       q    Type
REMARK                         _______ _______ _______ _____ _____    ______ ____
ROOT
ATOM      1  C   UNL     1       3.048   0.710   0.952  0.00  0.00    +0.000 A 
ATOM      2  C   UNL     1       2.789   0.475   2.254  0.00  0.00    +0.000 A 
ATOM      3  N   UNL     1       3.446   1.128   3.278  0.00  0.00    +0.000 N 
ATOM      4  C   UNL     1       4.495   2.031   3.080  0.00  0.00    +0.000 A 
ATOM      5  C   UNL     1       5.115   2.684   4.161  0.00  0.00    +0.000 A 
ATOM      6 BR   UNL     1       4.597   2.326   5.952  0.00  0.00    +0.000 Br
ATOM      7  C   UNL     1       6.129   3.619   3.950  0.00  0.00    +0.000 A 
ATOM      8  C   UNL     1       6.539   3.910   2.651  0.00  0.00    +0.000 A 
ATOM      9  C   UNL     1       5.932   3.280   1.559  0.00  0.00    +0.000 A 
ATOM     10 CL   UNL     1       6.548   3.741   0.010  0.00  0.00    +0.000 Cl
ATOM     11  C   UNL     1       4.896   2.350   1.770  0.00  0.00    +0.000 A 
ATOM     12  C   UNL     1       4.184   1.654   0.658  0.00  0.00    +0.000 A 
ATOM     13  O   UNL     1       4.543   1.814  -0.502  0.00  0.00    +0.000 OA
ATOM     14  H   UNL     1       3.271   0.762   4.220  0.00  0.00    +0.000 HD
ENDROOT
BRANCH   1  16
ATOM     15  C   UNL     1       2.223   0.843  -1.497  0.00  0.00    +0.000 C 
ATOM     16  C   UNL     1       2.304   0.084  -0.191  0.00  0.00    +0.000 C 
ATOM     17  O   UNL     1       1.726  -0.995  -0.070  0.00  0.00    +0.000 OA
ENDBRANCH   1  16
BRANCH   2  18
ATOM     18  S   UNL     1       1.665  -0.836   2.833  0.00  0.00    +0.000 S 
ATOM     19  O   UNL     1       1.868  -0.831   4.327  0.00  0.00    +0.000 OA
BRANCH  18  20
ATOM     20  C   UNL     1       0.042  -0.067   2.492  0.00  0.00    +0.000 C 
BRANCH  20  21
ATOM     21  C   UNL     1      -1.125  -0.930   2.941  0.00  0.00    +0.000 A 
ATOM     22  C   UNL     1      -1.320  -1.233   4.298  0.00  0.00    +0.000 A 
ATOM     23  C   UNL     1      -2.399  -2.020   4.713  0.00  0.00    +0.000 A 
ATOM     24  C   UNL     1      -3.318  -2.505   3.779  0.00  0.00    +0.000 A 
ATOM     25  C   UNL     1      -3.142  -2.198   2.425  0.00  0.00    +0.000 A 
ATOM     26  C   UNL     1      -2.055  -1.420   2.010  0.00  0.00    +0.000 A 
BRANCH  24  27
ATOM     27  C   UNL     1      -4.429  -3.313   4.204  0.00  0.00    +0.000 C 
ATOM     28  N   UNL     1      -5.328  -3.960   4.547  0.00  0.00    +0.000 NA
ENDBRANCH  24  27
ENDBRANCH  20  21
ENDBRANCH  18  20
ENDBRANCH   2  18
TORSDOF 5
