REMARK VINA RESULT:    -7.249     10.618     12.531
REMARK INTER + INTRA:         -10.180
REMARK INTER:                  -8.943
REMARK INTRA:                  -1.237
REMARK UNBOUND:                -1.235
REMARK  Name = 
REMARK  5 active torsions:
REMARK  status: ('A' for Active; 'I' for Inactive)
REMARK    1  A    between atoms: C_1  and  C_2
REMARK    2  A    between atoms: C_2  and  C_4
REMARK    3  A    between atoms: C_5  and  S_6
REMARK    4  A    between atoms: S_6  and  C_8
REMARK    5  A    between atoms: C_8  and  C_9
REMARK                            x       y       z     vdW  Elec       q    Type
REMARK                         _______ _______ _______ _____ _____    ______ ____
ROOT
ATOM      1  C   UNL     1     -55.436 -41.326 -77.132  0.00  0.00    +0.000 A 
ATOM      2  C   UNL     1     -55.299 -42.533 -76.533  0.00  0.00    +0.000 A 
ATOM      3  N   UNL     1     -54.142 -42.933 -75.889  0.00  0.00    +0.000 N 
ATOM      4  C   UNL     1     -52.958 -42.179 -75.901  0.00  0.00    +0.000 A 
ATOM      5  C   UNL     1     -51.805 -42.636 -75.238  0.00  0.00    +0.000 A 
ATOM      6 BR   UNL     1     -51.784 -44.325 -74.367  0.00  0.00    +0.000 Br
ATOM      7  C   UNL     1     -50.646 -41.867 -75.198  0.00  0.00    +0.000 A 
ATOM      8  C   UNL     1     -50.627 -40.621 -75.819  0.00  0.00    +0.000 A 
ATOM      9  C   UNL     1     -51.768 -40.133 -76.466  0.00  0.00    +0.000 A 
ATOM     10 CL   UNL     1     -51.586 -38.576 -77.197  0.00  0.00    +0.000 Cl
ATOM     11  C   UNL     1     -52.949 -40.903 -76.491  0.00  0.00    +0.000 A 
ATOM     12  C   UNL     1     -54.209 -40.449 -77.144  0.00  0.00    +0.000 A 
ATOM     13  O   UNL     1     -54.241 -39.373 -77.727  0.00  0.00    +0.000 OA
ATOM     14  H   UNL     1     -54.020 -43.944 -75.802  0.00  0.00    +0.000 HD
ENDROOT
BRANCH   1  16
ATOM     15  C   UNL     1     -57.673 -40.001 -77.010  0.00  0.00    +0.000 C 
ATOM     16  C   UNL     1     -56.694 -40.842 -77.800  0.00  0.00    +0.000 C 
ATOM     17  O   UNL     1     -56.965 -41.133 -78.964  0.00  0.00    +0.000 OA
ENDBRANCH   1  16
BRANCH   2  18
ATOM     18  S   UNL     1     -56.581 -43.822 -76.669  0.00  0.00    +0.000 S 
ATOM     19  O   UNL     1     -55.821 -45.003 -77.213  0.00  0.00    +0.000 OA
BRANCH  18  20
ATOM     20  C   UNL     1     -56.840 -44.166 -74.885  0.00  0.00    +0.000 C 
BRANCH  20  21
ATOM     21  C   UNL     1     -57.266 -42.943 -74.101  0.00  0.00    +0.000 A 
ATOM     22  C   UNL     1     -56.423 -42.370 -73.134  0.00  0.00    +0.000 A 
ATOM     23  C   UNL     1     -56.818 -41.231 -72.424  0.00  0.00    +0.000 A 
ATOM     24  C   UNL     1     -58.055 -40.644 -72.677  0.00  0.00    +0.000 A 
ATOM     25  C   UNL     1     -58.894 -41.192 -73.644  0.00  0.00    +0.000 A 
ATOM     26  C   UNL     1     -58.504 -42.332 -74.352  0.00  0.00    +0.000 A 
ENDBRANCH  20  21
ENDBRANCH  18  20
ENDBRANCH   2  18
TORSDOF 4
