REMARK VINA RESULT:    -5.067     23.964     26.717
REMARK INTER + INTRA:          -6.968
REMARK INTER:                  -6.028
REMARK INTRA:                  -0.940
REMARK UNBOUND:                -0.716
REMARK  Name = 
REMARK  6 active torsions:
REMARK  status: ('A' for Active; 'I' for Inactive)
REMARK    1  A    between atoms: C_1  and  C_2
REMARK    2  A    between atoms: C_2  and  C_4
REMARK    3  A    between atoms: C_5  and  S_6
REMARK    4  A    between atoms: S_6  and  C_8
REMARK    5  A    between atoms: C_8  and  C_9
REMARK    6  A    between atoms: C_11  and  C_12
REMARK                            x       y       z     vdW  Elec       q    Type
REMARK                         _______ _______ _______ _____ _____    ______ ____
ROOT
ATOM      1  C   UNL     1     -67.596 -49.466 -55.633  0.00  0.00    +0.000 A 
ATOM      2  C   UNL     1     -68.358 -50.581 -55.570  0.00  0.00    +0.000 A 
ATOM      3  N   UNL     1     -68.132 -51.609 -54.676  0.00  0.00    +0.000 N 
ATOM      4  C   UNL     1     -66.991 -51.667 -53.857  0.00  0.00    +0.000 A 
ATOM      5  C   UNL     1     -66.774 -52.764 -53.004  0.00  0.00    +0.000 A 
ATOM      6 BR   UNL     1     -67.965 -54.245 -52.989  0.00  0.00    +0.000 Br
ATOM      7  C   UNL     1     -65.675 -52.802 -52.149  0.00  0.00    +0.000 A 
ATOM      8  C   UNL     1     -64.784 -51.732 -52.130  0.00  0.00    +0.000 A 
ATOM      9  C   UNL     1     -64.991 -50.620 -52.950  0.00  0.00    +0.000 A 
ATOM     10 CL   UNL     1     -63.794 -49.378 -52.821  0.00  0.00    +0.000 Cl
ATOM     11  C   UNL     1     -66.111 -50.573 -53.806  0.00  0.00    +0.000 A 
ATOM     12  C   UNL     1     -66.411 -49.424 -54.707  0.00  0.00    +0.000 A 
ATOM     13  O   UNL     1     -65.660 -48.453 -54.725  0.00  0.00    +0.000 OA
ATOM     14  H   UNL     1     -68.514 -52.517 -54.951  0.00  0.00    +0.000 HD
ENDROOT
BRANCH   1  16
ATOM     15  C   UNL     1     -67.120 -48.286 -57.911  0.00  0.00    +0.000 C 
ATOM     16  C   UNL     1     -67.838 -48.316 -56.581  0.00  0.00    +0.000 C 
ATOM     17  O   UNL     1     -68.601 -47.392 -56.296  0.00  0.00    +0.000 OA
ENDBRANCH   1  16
BRANCH   2  18
ATOM     18  S   UNL     1     -69.664 -50.908 -56.799  0.00  0.00    +0.000 S 
ATOM     19  O   UNL     1     -69.946 -52.377 -56.626  0.00  0.00    +0.000 OA
BRANCH  18  20
ATOM     20  C   UNL     1     -71.058 -50.029 -56.001  0.00  0.00    +0.000 C 
BRANCH  20  21
ATOM     21  C   UNL     1     -70.993 -50.102 -54.509  0.00  0.00    +0.000 A 
ATOM     22  C   UNL     1     -70.715 -49.090 -53.553  0.00  0.00    +0.000 A 
ATOM     23  C   UNL     1     -70.786 -49.730 -52.340  0.00  0.00    +0.000 A 
ATOM     24  C   UNL     1     -70.557 -49.323 -50.941  0.00  0.00    +0.000 C 
ATOM     25  O   UNL     1     -71.139 -51.026 -52.542  0.00  0.00    +0.000 OA
ATOM     26  N   UNL     1     -71.277 -51.263 -53.898  0.00  0.00    +0.000 NA
ENDBRANCH  20  21
ENDBRANCH  18  20
ENDBRANCH   2  18
TORSDOF 4
