REMARK VINA RESULT:    -6.604      2.399      4.321
REMARK INTER + INTRA:          -9.385
REMARK INTER:                  -8.164
REMARK INTRA:                  -1.221
REMARK UNBOUND:                -0.850
REMARK  Name = 
REMARK  6 active torsions:
REMARK  status: ('A' for Active; 'I' for Inactive)
REMARK    1  A    between atoms: C_1  and  C_2
REMARK    2  A    between atoms: C_4  and  C_5
REMARK    3  A    between atoms: C_5  and  S_6
REMARK    4  A    between atoms: S_6  and  C_8
REMARK    5  A    between atoms: C_20  and  C_21
REMARK    6  A    between atoms: C_21  and  C_23
REMARK                            x       y       z     vdW  Elec       q    Type
REMARK                         _______ _______ _______ _____ _____    ______ ____
ROOT
ATOM      1  C   UNL     1     -56.132 -41.818 -77.495  0.00  0.00    +0.000 A 
ATOM      2  N   UNL     1     -55.232 -40.750 -77.315  0.00  0.00    +0.000 N 
ATOM      3  C   UNL     1     -53.911 -40.988 -76.844  0.00  0.00    +0.000 A 
ATOM      4  C   UNL     1     -52.860 -40.066 -77.007  0.00  0.00    +0.000 A 
ATOM      5 BR   UNL     1     -53.089 -38.492 -78.040  0.00  0.00    +0.000 Br
ATOM      6  C   UNL     1     -51.602 -40.292 -76.431  0.00  0.00    +0.000 A 
ATOM      7  C   UNL     1     -51.374 -41.466 -75.704  0.00  0.00    +0.000 A 
ATOM      8  C   UNL     1     -52.400 -42.395 -75.531  0.00  0.00    +0.000 A 
ATOM      9 CL   UNL     1     -51.997 -43.843 -74.680  0.00  0.00    +0.000 Cl
ATOM     10  C   UNL     1     -53.665 -42.141 -76.082  0.00  0.00    +0.000 A 
ATOM     11  C   UNL     1     -54.832 -43.021 -75.880  0.00  0.00    +0.000 A 
ATOM     12  O   UNL     1     -54.969 -43.686 -74.860  0.00  0.00    +0.000 OA
ATOM     13  C   UNL     1     -55.902 -43.024 -76.931  0.00  0.00    +0.000 A 
ATOM     14  H   UNL     1     -55.281 -40.066 -78.083  0.00  0.00    +0.000 HD
ENDROOT
BRANCH   1  15
ATOM     15  S   UNL     1     -57.292 -41.529 -78.857  0.00  0.00    +0.000 S 
ATOM     16  O   UNL     1     -58.548 -42.238 -78.429  0.00  0.00    +0.000 OA
BRANCH  15  17
ATOM     17  C   UNL     1     -56.685 -42.355 -80.357  0.00  0.00    +0.000 C 
BRANCH  17  21
ATOM     18  C   UNL     1     -51.629 -42.570 -81.140  0.00  0.00    +0.000 C 
ATOM     19  C   UNL     1     -53.097 -42.431 -81.113  0.00  0.00    +0.000 A 
ATOM     20  C   UNL     1     -54.084 -42.768 -80.217  0.00  0.00    +0.000 A 
ATOM     21  C   UNL     1     -55.271 -42.256 -80.787  0.00  0.00    +0.000 A 
ATOM     22  N   UNL     1     -55.019 -41.707 -81.988  0.00  0.00    +0.000 NA
ATOM     23  O   UNL     1     -53.658 -41.818 -82.186  0.00  0.00    +0.000 OA
ENDBRANCH  17  21
ENDBRANCH  15  17
ENDBRANCH   1  15
BRANCH  13  24
ATOM     24  C   UNL     1     -56.394 -44.386 -77.282  0.00  0.00    +0.000 C 
ATOM     25  O   UNL     1     -57.536 -44.720 -77.018  0.00  0.00    +0.000 OA
BRANCH  24  26
ATOM     26  C   UNL     1     -55.489 -45.307 -77.996  0.00  0.00    +0.000 C 
ATOM     27  C   UNL     1     -55.905 -46.741 -78.205  0.00  0.00    +0.000 C 
ATOM     28  C   UNL     1     -54.777 -46.424 -77.271  0.00  0.00    +0.000 C 
ENDBRANCH  24  26
ENDBRANCH  13  24
TORSDOF 5
