REMARK VINA RESULT:    -5.065      1.719      2.072
REMARK INTER + INTRA:          -7.106
REMARK INTER:                  -6.764
REMARK INTRA:                  -0.341
REMARK UNBOUND:                -0.856
REMARK  Name = 
REMARK  6 active torsions:
REMARK  status: ('A' for Active; 'I' for Inactive)
REMARK    1  A    between atoms: C_1  and  C_2
REMARK    2  A    between atoms: C_2  and  C_4
REMARK    3  A    between atoms: C_5  and  S_6
REMARK    4  A    between atoms: S_6  and  C_8
REMARK    5  A    between atoms: C_8  and  C_9
REMARK    6  A    between atoms: C_11  and  C_12
REMARK                            x       y       z     vdW  Elec       q    Type
REMARK                         _______ _______ _______ _____ _____    ______ ____
ROOT
ATOM      1  C   UNL     1     -58.461 -39.775 -62.318  0.00  0.00    +0.000 A 
ATOM      2  C   UNL     1     -57.455 -40.430 -62.939  0.00  0.00    +0.000 A 
ATOM      3  N   UNL     1     -56.313 -39.795 -63.385  0.00  0.00    +0.000 N 
ATOM      4  C   UNL     1     -56.139 -38.402 -63.331  0.00  0.00    +0.000 A 
ATOM      5  C   UNL     1     -54.944 -37.805 -63.765  0.00  0.00    +0.000 A 
ATOM      6 BR   UNL     1     -53.545 -38.854 -64.511  0.00  0.00    +0.000 Br
ATOM      7  C   UNL     1     -54.745 -36.427 -63.656  0.00  0.00    +0.000 A 
ATOM      8  C   UNL     1     -55.744 -35.629 -63.113  0.00  0.00    +0.000 A 
ATOM      9  C   UNL     1     -56.939 -36.196 -62.664  0.00  0.00    +0.000 A 
ATOM     10 CL   UNL     1     -58.097 -35.071 -62.044  0.00  0.00    +0.000 Cl
ATOM     11  C   UNL     1     -57.125 -37.592 -62.743  0.00  0.00    +0.000 A 
ATOM     12  C   UNL     1     -58.324 -38.278 -62.208  0.00  0.00    +0.000 A 
ATOM     13  O   UNL     1     -59.210 -37.620 -61.679  0.00  0.00    +0.000 OA
ATOM     14  H   UNL     1     -55.709 -40.307 -64.023  0.00  0.00    +0.000 HD
ENDROOT
BRANCH   1  16
ATOM     15  C   UNL     1     -60.948 -40.491 -62.543  0.00  0.00    +0.000 C 
ATOM     16  C   UNL     1     -59.684 -40.421 -61.722  0.00  0.00    +0.000 C 
ATOM     17  O   UNL     1     -59.682 -40.858 -60.579  0.00  0.00    +0.000 OA
ENDBRANCH   1  16
BRANCH   2  18
ATOM     18  S   UNL     1     -57.589 -42.212 -63.344  0.00  0.00    +0.000 S 
ATOM     19  O   UNL     1     -56.710 -42.375 -64.555  0.00  0.00    +0.000 OA
BRANCH  18  20
ATOM     20  C   UNL     1     -56.649 -42.925 -61.945  0.00  0.00    +0.000 C 
BRANCH  20  21
ATOM     21  C   UNL     1     -55.291 -43.390 -62.358  0.00  0.00    +0.000 A 
ATOM     22  C   UNL     1     -54.313 -42.711 -63.131  0.00  0.00    +0.000 A 
ATOM     23  C   UNL     1     -53.228 -43.559 -63.144  0.00  0.00    +0.000 A 
ATOM     24  C   UNL     1     -51.880 -43.509 -63.743  0.00  0.00    +0.000 C 
ATOM     25  O   UNL     1     -53.531 -44.671 -62.422  0.00  0.00    +0.000 OA
ATOM     26  N   UNL     1     -54.818 -44.563 -61.920  0.00  0.00    +0.000 NA
ENDBRANCH  20  21
ENDBRANCH  18  20
ENDBRANCH   2  18
TORSDOF 4
