REMARK VINA RESULT:    -7.112      2.718      4.122
REMARK INTER + INTRA:         -10.188
REMARK INTER:                  -9.273
REMARK INTRA:                  -0.915
REMARK UNBOUND:                -0.997
REMARK  Name = 
REMARK  8 active torsions:
REMARK  status: ('A' for Active; 'I' for Inactive)
REMARK    1  A    between atoms: C_1  and  C_2
REMARK    2  A    between atoms: C_4  and  C_5
REMARK    3  A    between atoms: C_5  and  S_6
REMARK    4  A    between atoms: S_6  and  C_8
REMARK    5  A    between atoms: C_20  and  C_21
REMARK    6  A    between atoms: C_21  and  C_23
REMARK    7  A    between atoms: C_23  and  C_24
REMARK    8  A    between atoms: C_23  and  C_25
REMARK                            x       y       z     vdW  Elec       q    Type
REMARK                         _______ _______ _______ _____ _____    ______ ____
ROOT
ATOM      1  C   UNL     1     -55.374 -42.737 -76.487  0.00  0.00    +0.000 A 
ATOM      2  N   UNL     1     -54.034 -43.038 -76.261  0.00  0.00    +0.000 N 
ATOM      3  C   UNL     1     -53.058 -42.026 -76.142  0.00  0.00    +0.000 A 
ATOM      4  C   UNL     1     -51.805 -42.261 -75.541  0.00  0.00    +0.000 A 
ATOM      5 CL   UNL     1     -51.466 -43.770 -74.771  0.00  0.00    +0.000 Cl
ATOM      6  C   UNL     1     -50.817 -41.277 -75.528  0.00  0.00    +0.000 A 
ATOM      7  C   UNL     1     -51.072 -40.036 -76.117  0.00  0.00    +0.000 A 
ATOM      8  C   UNL     1     -52.317 -39.777 -76.705  0.00  0.00    +0.000 A 
ATOM      9 CL   UNL     1     -52.537 -38.187 -77.339  0.00  0.00    +0.000 Cl
ATOM     10  C   UNL     1     -53.302 -40.776 -76.728  0.00  0.00    +0.000 A 
ATOM     11  C   UNL     1     -54.623 -40.642 -77.392  0.00  0.00    +0.000 A 
ATOM     12  O   UNL     1     -54.738 -39.885 -78.348  0.00  0.00    +0.000 OA
ATOM     13  C   UNL     1     -55.784 -41.514 -76.929  0.00  0.00    +0.000 A 
ATOM     14  H   UNL     1     -53.893 -43.858 -75.657  0.00  0.00    +0.000 HD
ENDROOT
BRANCH   1  15
ATOM     15  S   UNL     1     -56.468 -44.087 -75.885  0.00  0.00    +0.000 S 
ATOM     16  O   UNL     1     -56.901 -43.613 -74.524  0.00  0.00    +0.000 OA
BRANCH  15  17
ATOM     17  C   UNL     1     -55.295 -45.481 -75.634  0.00  0.00    +0.000 C 
BRANCH  17  21
ATOM     18  C   UNL     1     -55.782 -50.112 -77.882  0.00  0.00    +0.000 C 
ATOM     19  C   UNL     1     -55.806 -48.731 -77.355  0.00  0.00    +0.000 A 
ATOM     20  C   UNL     1     -55.173 -48.067 -76.330  0.00  0.00    +0.000 A 
ATOM     21  C   UNL     1     -55.633 -46.723 -76.420  0.00  0.00    +0.000 A 
ATOM     22  N   UNL     1     -56.518 -46.609 -77.425  0.00  0.00    +0.000 NA
ATOM     23  O   UNL     1     -56.617 -47.858 -78.007  0.00  0.00    +0.000 OA
ENDBRANCH  17  21
ENDBRANCH  15  17
ENDBRANCH   1  15
BRANCH  13  24
ATOM     24  C   UNL     1     -57.147 -40.861 -77.026  0.00  0.00    +0.000 C 
ATOM     25  O   UNL     1     -57.460 -39.970 -76.226  0.00  0.00    +0.000 OA
BRANCH  24  26
ATOM     26  C   UNL     1     -58.217 -41.358 -77.980  0.00  0.00    +0.000 C 
ATOM     27  C   UNL     1     -59.333 -40.335 -78.075  0.00  0.00    +0.000 C 
ATOM     28  C   UNL     1     -57.630 -41.748 -79.331  0.00  0.00    +0.000 C 
ENDBRANCH  24  26
ENDBRANCH  13  24
TORSDOF 5
