REMARK VINA RESULT:    -6.193      4.689      7.407
REMARK INTER + INTRA:          -8.382
REMARK INTER:                  -7.646
REMARK INTRA:                  -0.737
REMARK UNBOUND:                -0.741
REMARK  Name = 
REMARK  5 active torsions:
REMARK  status: ('A' for Active; 'I' for Inactive)
REMARK    1  A    between atoms: C_1  and  C_2
REMARK    2  A    between atoms: C_2  and  C_4
REMARK    3  A    between atoms: C_5  and  S_6
REMARK    4  A    between atoms: S_6  and  C_8
REMARK    5  A    between atoms: C_8  and  C_9
REMARK                            x       y       z     vdW  Elec       q    Type
REMARK                         _______ _______ _______ _____ _____    ______ ____
ROOT
ATOM      1  C   UNL     1     -55.657 -41.583 -79.356  0.00  0.00    +0.000 A 
ATOM      2  C   UNL     1     -56.967 -41.573 -79.025  0.00  0.00    +0.000 A 
ATOM      3  N   UNL     1     -57.428 -41.631 -77.721  0.00  0.00    +0.000 N 
ATOM      4  C   UNL     1     -56.574 -41.971 -76.658  0.00  0.00    +0.000 A 
ATOM      5  C   UNL     1     -57.088 -42.251 -75.379  0.00  0.00    +0.000 A 
ATOM      6 BR   UNL     1     -58.959 -42.238 -75.055  0.00  0.00    +0.000 Br
ATOM      7  C   UNL     1     -56.237 -42.558 -74.323  0.00  0.00    +0.000 A 
ATOM      8  C   UNL     1     -54.859 -42.584 -74.533  0.00  0.00    +0.000 A 
ATOM      9  C   UNL     1     -54.326 -42.279 -75.790  0.00  0.00    +0.000 A 
ATOM     10 CL   UNL     1     -52.609 -42.409 -75.938  0.00  0.00    +0.000 Cl
ATOM     11  C   UNL     1     -55.181 -41.942 -76.851  0.00  0.00    +0.000 A 
ATOM     12  C   UNL     1     -54.704 -41.536 -78.202  0.00  0.00    +0.000 A 
ATOM     13  O   UNL     1     -53.559 -41.131 -78.373  0.00  0.00    +0.000 OA
ATOM     14  H   UNL     1     -58.379 -41.993 -77.631  0.00  0.00    +0.000 HD
ENDROOT
BRANCH   1  16
ATOM     15  C   UNL     1     -54.797 -40.340 -81.476  0.00  0.00    +0.000 C 
ATOM     16  C   UNL     1     -55.124 -41.629 -80.759  0.00  0.00    +0.000 C 
ATOM     17  O   UNL     1     -54.940 -42.705 -81.340  0.00  0.00    +0.000 OA
ENDBRANCH   1  16
BRANCH   2  18
ATOM     18  S   UNL     1     -58.252 -41.654 -80.298  0.00  0.00    +0.000 S 
ATOM     19  O   UNL     1     -58.413 -43.128 -80.546  0.00  0.00    +0.000 OA
BRANCH  18  20
ATOM     20  C   UNL     1     -59.708 -41.158 -79.302  0.00  0.00    +0.000 C 
BRANCH  20  21
ATOM     21  C   UNL     1     -60.423 -39.874 -79.656  0.00  0.00    +0.000 A 
ATOM     22  C   UNL     1     -60.737 -38.887 -78.717  0.00  0.00    +0.000 A 
ATOM     23  C   UNL     1     -61.335 -37.689 -79.117  0.00  0.00    +0.000 A 
ATOM     24  C   UNL     1     -61.603 -37.448 -80.462  0.00  0.00    +0.000 A 
ATOM     25  C   UNL     1     -61.269 -38.408 -81.413  0.00  0.00    +0.000 A 
ATOM     26  C   UNL     1     -60.679 -39.609 -81.014  0.00  0.00    +0.000 A 
ENDBRANCH  20  21
ENDBRANCH  18  20
ENDBRANCH   2  18
TORSDOF 4
