REMARK VINA RESULT:    -6.506      3.673      6.653
REMARK INTER + INTRA:          -9.462
REMARK INTER:                  -8.592
REMARK INTRA:                  -0.870
REMARK UNBOUND:                -1.054
REMARK  Name = 
REMARK  8 active torsions:
REMARK  status: ('A' for Active; 'I' for Inactive)
REMARK    1  A    between atoms: C_1  and  C_2
REMARK    2  A    between atoms: C_4  and  C_5
REMARK    3  A    between atoms: C_5  and  S_6
REMARK    4  A    between atoms: S_6  and  C_8
REMARK    5  A    between atoms: C_20  and  C_21
REMARK    6  A    between atoms: C_21  and  C_23
REMARK    7  A    between atoms: C_23  and  C_24
REMARK    8  A    between atoms: C_23  and  C_25
REMARK                            x       y       z     vdW  Elec       q    Type
REMARK                         _______ _______ _______ _____ _____    ______ ____
ROOT
ATOM      1  C   UNL     1     -55.440 -41.922 -77.863  0.00  0.00    +0.000 A 
ATOM      2  N   UNL     1     -56.715 -42.439 -77.656  0.00  0.00    +0.000 N 
ATOM      3  C   UNL     1     -57.340 -42.381 -76.395  0.00  0.00    +0.000 A 
ATOM      4  C   UNL     1     -58.734 -42.500 -76.244  0.00  0.00    +0.000 A 
ATOM      5 BR   UNL     1     -59.876 -42.586 -77.757  0.00  0.00    +0.000 Br
ATOM      6  C   UNL     1     -59.321 -42.517 -74.976  0.00  0.00    +0.000 A 
ATOM      7  C   UNL     1     -58.524 -42.409 -73.840  0.00  0.00    +0.000 A 
ATOM      8  C   UNL     1     -57.129 -42.281 -73.969  0.00  0.00    +0.000 A 
ATOM      9 CL   UNL     1     -56.253 -42.083 -72.494  0.00  0.00    +0.000 Cl
ATOM     10  C   UNL     1     -56.536 -42.271 -75.249  0.00  0.00    +0.000 A 
ATOM     11  C   UNL     1     -55.074 -42.174 -75.490  0.00  0.00    +0.000 A 
ATOM     12  O   UNL     1     -54.282 -42.523 -74.619  0.00  0.00    +0.000 OA
ATOM     13  C   UNL     1     -54.591 -41.656 -76.841  0.00  0.00    +0.000 A 
ATOM     14  H   UNL     1     -57.336 -42.357 -78.472  0.00  0.00    +0.000 HD
ENDROOT
BRANCH   1  15
ATOM     15  S   UNL     1     -55.177 -41.464 -79.618  0.00  0.00    +0.000 S 
ATOM     16  O   UNL     1     -56.555 -41.537 -80.218  0.00  0.00    +0.000 OA
BRANCH  15  17
ATOM     17  C   UNL     1     -54.189 -42.853 -80.269  0.00  0.00    +0.000 C 
BRANCH  17  21
ATOM     18  C   UNL     1     -50.528 -41.779 -83.769  0.00  0.00    +0.000 C 
ATOM     19  C   UNL     1     -51.710 -42.050 -82.922  0.00  0.00    +0.000 A 
ATOM     20  C   UNL     1     -51.905 -42.520 -81.643  0.00  0.00    +0.000 A 
ATOM     21  C   UNL     1     -53.317 -42.503 -81.452  0.00  0.00    +0.000 A 
ATOM     22  N   UNL     1     -53.921 -42.066 -82.570  0.00  0.00    +0.000 NA
ATOM     23  O   UNL     1     -52.919 -41.783 -83.479  0.00  0.00    +0.000 OA
ENDBRANCH  17  21
ENDBRANCH  15  17
ENDBRANCH   1  15
BRANCH  13  24
ATOM     24  C   UNL     1     -53.281 -40.899 -76.851  0.00  0.00    +0.000 C 
ATOM     25  O   UNL     1     -53.277 -39.669 -76.898  0.00  0.00    +0.000 OA
BRANCH  24  26
ATOM     26  C   UNL     1     -51.952 -41.654 -76.868  0.00  0.00    +0.000 C 
ATOM     27  C   UNL     1     -51.320 -41.655 -78.258  0.00  0.00    +0.000 C 
ATOM     28  C   UNL     1     -50.965 -41.101 -75.837  0.00  0.00    +0.000 C 
ENDBRANCH  24  26
ENDBRANCH  13  24
TORSDOF 5
