REMARK VINA RESULT:    -7.231      9.748     12.571
REMARK INTER + INTRA:         -10.264
REMARK INTER:                  -8.929
REMARK INTRA:                  -1.335
REMARK UNBOUND:                -0.920
REMARK  Name = 
REMARK  8 active torsions:
REMARK  status: ('A' for Active; 'I' for Inactive)
REMARK    1  A    between atoms: C_1  and  C_2
REMARK    2  A    between atoms: C_4  and  C_5
REMARK    3  A    between atoms: C_5  and  S_6
REMARK    4  A    between atoms: S_6  and  C_8
REMARK    5  A    between atoms: C_20  and  C_21
REMARK    6  A    between atoms: C_21  and  C_23
REMARK    7  A    between atoms: C_23  and  C_24
REMARK    8  A    between atoms: C_23  and  C_25
REMARK                            x       y       z     vdW  Elec       q    Type
REMARK                         _______ _______ _______ _____ _____    ______ ____
ROOT
ATOM      1  C   UNL     1     -55.490 -41.500 -63.164  0.00  0.00    +0.000 A 
ATOM      2  N   UNL     1     -54.905 -42.758 -63.063  0.00  0.00    +0.000 N 
ATOM      3  C   UNL     1     -53.531 -42.956 -63.305  0.00  0.00    +0.000 A 
ATOM      4  C   UNL     1     -52.840 -44.082 -62.820  0.00  0.00    +0.000 A 
ATOM      5 BR   UNL     1     -53.688 -45.326 -61.666  0.00  0.00    +0.000 Br
ATOM      6  C   UNL     1     -51.496 -44.294 -63.140  0.00  0.00    +0.000 A 
ATOM      7  C   UNL     1     -50.822 -43.380 -63.946  0.00  0.00    +0.000 A 
ATOM      8  C   UNL     1     -51.493 -42.244 -64.435  0.00  0.00    +0.000 A 
ATOM      9 CL   UNL     1     -50.535 -41.148 -65.363  0.00  0.00    +0.000 Cl
ATOM     10  C   UNL     1     -52.851 -42.035 -64.117  0.00  0.00    +0.000 A 
ATOM     11  C   UNL     1     -53.655 -40.887 -64.609  0.00  0.00    +0.000 A 
ATOM     12  O   UNL     1     -53.329 -40.303 -65.638  0.00  0.00    +0.000 OA
ATOM     13  C   UNL     1     -54.896 -40.475 -63.821  0.00  0.00    +0.000 A 
ATOM     14  H   UNL     1     -55.327 -43.357 -62.340  0.00  0.00    +0.000 HD
ENDROOT
BRANCH   1  15
ATOM     15  S   UNL     1     -57.002 -41.377 -62.137  0.00  0.00    +0.000 S 
ATOM     16  O   UNL     1     -57.018 -42.668 -61.365  0.00  0.00    +0.000 OA
BRANCH  15  17
ATOM     17  C   UNL     1     -58.349 -41.421 -63.366  0.00  0.00    +0.000 C 
BRANCH  17  21
ATOM     18  C   UNL     1     -57.155 -42.677 -68.245  0.00  0.00    +0.000 C 
ATOM     19  C   UNL     1     -57.460 -42.517 -66.806  0.00  0.00    +0.000 A 
ATOM     20  C   UNL     1     -57.733 -41.450 -65.980  0.00  0.00    +0.000 A 
ATOM     21  C   UNL     1     -57.966 -42.024 -64.697  0.00  0.00    +0.000 A 
ATOM     22  N   UNL     1     -57.816 -43.359 -64.762  0.00  0.00    +0.000 NA
ATOM     23  O   UNL     1     -57.505 -43.660 -66.074  0.00  0.00    +0.000 OA
ENDBRANCH  17  21
ENDBRANCH  15  17
ENDBRANCH   1  15
BRANCH  13  24
ATOM     24  C   UNL     1     -55.261 -39.008 -63.847  0.00  0.00    +0.000 C 
ATOM     25  O   UNL     1     -56.227 -38.622 -64.505  0.00  0.00    +0.000 OA
BRANCH  24  26
ATOM     26  C   UNL     1     -54.396 -37.983 -63.113  0.00  0.00    +0.000 C 
ATOM     27  C   UNL     1     -54.434 -36.618 -63.795  0.00  0.00    +0.000 C 
ATOM     28  C   UNL     1     -54.791 -37.851 -61.640  0.00  0.00    +0.000 C 
ENDBRANCH  24  26
ENDBRANCH  13  24
TORSDOF 5
