REMARK  Name = 
REMARK  6 active torsions:
REMARK  status: ('A' for Active; 'I' for Inactive)
REMARK    1  A    between atoms: C_1  and  C_2
REMARK    2  A    between atoms: C_2  and  C_4
REMARK    3  A    between atoms: C_5  and  S_6
REMARK    4  A    between atoms: S_6  and  C_8
REMARK    5  A    between atoms: C_8  and  C_9
REMARK    6  A    between atoms: C_11  and  C_12
REMARK                            x       y       z     vdW  Elec       q    Type
REMARK                         _______ _______ _______ _____ _____    ______ ____
ROOT
ATOM      1  C   UNL     1       2.973  -1.140   0.699  0.00  0.00    +0.000 A 
ATOM      2  C   UNL     1       2.665  -2.427   0.429  0.00  0.00    +0.000 A 
ATOM      3  N   UNL     1       3.298  -3.496   1.029  0.00  0.00    +0.000 N 
ATOM      4  C   UNL     1       4.366  -3.351   1.928  0.00  0.00    +0.000 A 
ATOM      5  C   UNL     1       4.921  -4.469   2.576  0.00  0.00    +0.000 A 
ATOM      6 BR   UNL     1       4.292  -6.224   2.207  0.00  0.00    +0.000 Br
ATOM      7  C   UNL     1       5.936  -4.323   3.518  0.00  0.00    +0.000 A 
ATOM      8  C   UNL     1       6.413  -3.052   3.824  0.00  0.00    +0.000 A 
ATOM      9  C   UNL     1       5.864  -1.921   3.209  0.00  0.00    +0.000 A 
ATOM     10 CL   UNL     1       6.553  -0.410   3.693  0.00  0.00    +0.000 Cl
ATOM     11  C   UNL     1       4.818  -2.065   2.277  0.00  0.00    +0.000 A 
ATOM     12  C   UNL     1       4.156  -0.915   1.604  0.00  0.00    +0.000 A 
ATOM     13  O   UNL     1       4.593   0.220   1.752  0.00  0.00    +0.000 OA
ATOM     14  H   UNL     1       3.246  -4.386   0.536  0.00  0.00    +0.000 HD
ENDROOT
BRANCH   1  16
ATOM     15  C   UNL     1       2.247   1.334   0.951  0.00  0.00    +0.000 C 
ATOM     16  C   UNL     1       2.249   0.054   0.148  0.00  0.00    +0.000 C 
ATOM     17  O   UNL     1       1.632   0.003  -0.919  0.00  0.00    +0.000 OA
ENDBRANCH   1  16
BRANCH   2  18
ATOM     18  S   UNL     1       1.454  -2.859  -0.871  0.00  0.00    +0.000 S 
ATOM     19  O   UNL     1       2.260  -3.677  -1.844  0.00  0.00    +0.000 OA
BRANCH  18  20
ATOM     20  C   UNL     1       0.436  -4.054   0.066  0.00  0.00    +0.000 C 
BRANCH  20  21
ATOM     21  C   UNL     1      -0.681  -4.603  -0.757  0.00  0.00    +0.000 A 
ATOM     22  C   UNL     1      -0.619  -5.378  -1.943  0.00  0.00    +0.000 A 
ATOM     23  C   UNL     1      -1.927  -5.689  -2.222  0.00  0.00    +0.000 A 
ATOM     24  C   UNL     1      -2.602  -6.467  -3.278  0.00  0.00    +0.000 C 
ATOM     25  O   UNL     1      -2.727  -5.137  -1.272  0.00  0.00    +0.000 OA
ATOM     26  N   UNL     1      -1.950  -4.461  -0.347  0.00  0.00    +0.000 NA
ENDBRANCH  20  21
ENDBRANCH  18  20
ENDBRANCH   2  18
TORSDOF 4
