REMARK VINA RESULT:    -4.660     17.157     18.367
REMARK INTER + INTRA:          -6.785
REMARK INTER:                  -6.113
REMARK INTRA:                  -0.672
REMARK UNBOUND:                -1.035
REMARK  Name = 
REMARK  6 active torsions:
REMARK  status: ('A' for Active; 'I' for Inactive)
REMARK    1  A    between atoms: C_1  and  C_2
REMARK    2  A    between atoms: C_2  and  C_4
REMARK    3  A    between atoms: C_5  and  S_6
REMARK    4  A    between atoms: S_6  and  C_8
REMARK    5  A    between atoms: C_8  and  C_9
REMARK    6  A    between atoms: C_11  and  C_12
REMARK                            x       y       z     vdW  Elec       q    Type
REMARK                         _______ _______ _______ _____ _____    ______ ____
ROOT
ATOM      1  C   UNL     1     -57.334 -41.730 -80.647  0.00  0.00    +0.000 A 
ATOM      2  C   UNL     1     -56.038 -41.496 -80.962  0.00  0.00    +0.000 A 
ATOM      3  N   UNL     1     -55.081 -41.379 -79.976  0.00  0.00    +0.000 N 
ATOM      4  C   UNL     1     -55.340 -41.531 -78.610  0.00  0.00    +0.000 A 
ATOM      5  C   UNL     1     -54.320 -41.391 -77.653  0.00  0.00    +0.000 A 
ATOM      6 BR   UNL     1     -52.520 -41.094 -78.182  0.00  0.00    +0.000 Br
ATOM      7  C   UNL     1     -54.591 -41.472 -76.288  0.00  0.00    +0.000 A 
ATOM      8  C   UNL     1     -55.899 -41.679 -75.855  0.00  0.00    +0.000 A 
ATOM      9  C   UNL     1     -56.933 -41.816 -76.781  0.00  0.00    +0.000 A 
ATOM     10 CL   UNL     1     -58.510 -42.044 -76.101  0.00  0.00    +0.000 Cl
ATOM     11  C   UNL     1     -56.644 -41.742 -78.159  0.00  0.00    +0.000 A 
ATOM     12  C   UNL     1     -57.676 -41.926 -79.195  0.00  0.00    +0.000 A 
ATOM     13  O   UNL     1     -58.791 -42.280 -78.836  0.00  0.00    +0.000 OA
ATOM     14  H   UNL     1     -54.118 -41.422 -80.283  0.00  0.00    +0.000 HD
ENDROOT
BRANCH   1  16
ATOM     15  C   UNL     1     -58.626 -43.314 -82.201  0.00  0.00    +0.000 C 
ATOM     16  C   UNL     1     -58.456 -41.915 -81.619  0.00  0.00    +0.000 C 
ATOM     17  O   UNL     1     -59.177 -41.005 -81.930  0.00  0.00    +0.000 OA
ENDBRANCH   1  16
BRANCH   2  18
ATOM     18  S   UNL     1     -55.444 -41.221 -82.683  0.00  0.00    +0.000 S 
ATOM     19  O   UNL     1     -56.135 -39.950 -83.097  0.00  0.00    +0.000 OA
BRANCH  18  20
ATOM     20  C   UNL     1     -53.657 -40.774 -82.461  0.00  0.00    +0.000 C 
BRANCH  20  21
ATOM     21  C   UNL     1     -52.779 -41.437 -83.466  0.00  0.00    +0.000 A 
ATOM     22  C   UNL     1     -51.452 -41.909 -83.318  0.00  0.00    +0.000 A 
ATOM     23  C   UNL     1     -51.114 -42.363 -84.567  0.00  0.00    +0.000 A 
ATOM     24  C   UNL     1     -49.895 -42.943 -85.150  0.00  0.00    +0.000 C 
ATOM     25  O   UNL     1     -52.170 -42.209 -85.407  0.00  0.00    +0.000 OA
ATOM     26  N   UNL     1     -53.228 -41.651 -84.714  0.00  0.00    +0.000 NA
ENDBRANCH  20  21
ENDBRANCH  18  20
ENDBRANCH   2  18
TORSDOF 4
