MODEL 1
REMARK VINA RESULT:    -7.438      0.000      0.000
REMARK INTER + INTRA:         -10.534
REMARK INTER:                  -9.613
REMARK INTRA:                  -0.922
REMARK UNBOUND:                -0.922
REMARK  Name = 
REMARK  6 active torsions:
REMARK  status: ('A' for Active; 'I' for Inactive)
REMARK    1  A    between atoms: C_1  and  C_2
REMARK    2  A    between atoms: C_4  and  C_5
REMARK    3  A    between atoms: C_5  and  S_6
REMARK    4  A    between atoms: S_6  and  C_8
REMARK    5  A    between atoms: C_20  and  C_21
REMARK    6  A    between atoms: C_21  and  C_23
REMARK                            x       y       z     vdW  Elec       q    Type
REMARK                         _______ _______ _______ _____ _____    ______ ____
ROOT
ATOM      1  C   UNL     1     -55.783 -42.779 -76.795  0.00  0.00    +0.000 A 
ATOM      2  N   UNL     1     -54.455 -43.115 -76.468  0.00  0.00    +0.000 N 
ATOM      3  C   UNL     1     -53.462 -42.104 -76.345  0.00  0.00    +0.000 A 
ATOM      4  C   UNL     1     -52.249 -42.299 -75.659  0.00  0.00    +0.000 A 
ATOM      5 BR   UNL     1     -51.921 -43.891 -74.683  0.00  0.00    +0.000 Br
ATOM      6  C   UNL     1     -51.252 -41.313 -75.655  0.00  0.00    +0.000 A 
ATOM      7  C   UNL     1     -51.473 -40.101 -76.320  0.00  0.00    +0.000 A 
ATOM      8  C   UNL     1     -52.669 -39.885 -77.004  0.00  0.00    +0.000 A 
ATOM      9 CL   UNL     1     -52.874 -38.331 -77.730  0.00  0.00    +0.000 Cl
ATOM     10  C   UNL     1     -53.644 -40.893 -77.031  0.00  0.00    +0.000 A 
ATOM     11  C   UNL     1     -54.901 -40.788 -77.798  0.00  0.00    +0.000 A 
ATOM     12  O   UNL     1     -54.971 -40.139 -78.834  0.00  0.00    +0.000 OA
ATOM     13  C   UNL     1     -56.087 -41.570 -77.316  0.00  0.00    +0.000 A 
ATOM     14  H   UNL     1     -54.404 -43.837 -75.736  0.00  0.00    +0.000 HD
ENDROOT
BRANCH   1  15
ATOM     15  S   UNL     1     -56.990 -43.904 -76.045  0.00  0.00    +0.000 S 
ATOM     16  O   UNL     1     -57.765 -44.447 -77.215  0.00  0.00    +0.000 OA
BRANCH  15  17
ATOM     17  C   UNL     1     -58.148 -42.954 -75.018  0.00  0.00    +0.000 C 
BRANCH  17  21
ATOM     18  C   UNL     1     -55.919 -41.088 -70.803  0.00  0.00    +0.000 C 
ATOM     19  C   UNL     1     -56.740 -41.537 -71.943  0.00  0.00    +0.000 A 
ATOM     20  C   UNL     1     -56.479 -42.184 -73.127  0.00  0.00    +0.000 A 
ATOM     21  C   UNL     1     -57.750 -42.385 -73.710  0.00  0.00    +0.000 A 
ATOM     22  N   UNL     1     -58.710 -41.828 -72.951  0.00  0.00    +0.000 NA
ATOM     23  O   UNL     1     -58.073 -41.300 -71.847  0.00  0.00    +0.000 OA
ENDBRANCH  17  21
ENDBRANCH  15  17
ENDBRANCH   1  15
BRANCH  13  24
ATOM     24  C   UNL     1     -57.363 -40.800 -77.341  0.00  0.00    +0.000 C 
ATOM     25  O   UNL     1     -57.585 -39.942 -76.504  0.00  0.00    +0.000 OA
BRANCH  24  26
ATOM     26  C   UNL     1     -58.329 -41.060 -78.424  0.00  0.00    +0.000 C 
ATOM     27  C   UNL     1     -59.626 -40.294 -78.461  0.00  0.00    +0.000 C 
ATOM     28  C   UNL     1     -59.640 -41.760 -78.153  0.00  0.00    +0.000 C 
ENDBRANCH  24  26
ENDBRANCH  13  24
TORSDOF 5
ENDMDL
MODEL 2
REMARK VINA RESULT:    -7.345      8.517     12.588
REMARK INTER + INTRA:         -10.414
REMARK INTER:                 -10.021
REMARK INTRA:                  -0.393
REMARK UNBOUND:                -0.922
REMARK  Name = 
REMARK  6 active torsions:
REMARK  status: ('A' for Active; 'I' for Inactive)
REMARK    1  A    between atoms: C_1  and  C_2
REMARK    2  A    between atoms: C_4  and  C_5
REMARK    3  A    between atoms: C_5  and  S_6
REMARK    4  A    between atoms: S_6  and  C_8
REMARK    5  A    between atoms: C_20  and  C_21
REMARK    6  A    between atoms: C_21  and  C_23
REMARK                            x       y       z     vdW  Elec       q    Type
REMARK                         _______ _______ _______ _____ _____    ______ ____
ROOT
ATOM      1  C   UNL     1     -55.700 -41.526 -63.671  0.00  0.00    +0.000 A 
ATOM      2  N   UNL     1     -54.360 -41.144 -63.878  0.00  0.00    +0.000 N 
ATOM      3  C   UNL     1     -53.324 -42.118 -63.893  0.00  0.00    +0.000 A 
ATOM      4  C   UNL     1     -52.060 -41.885 -64.465  0.00  0.00    +0.000 A 
ATOM      5 BR   UNL     1     -51.700 -40.292 -65.430  0.00  0.00    +0.000 Br
ATOM      6  C   UNL     1     -51.031 -42.832 -64.361  0.00  0.00    +0.000 A 
ATOM      7  C   UNL     1     -51.270 -44.044 -63.702  0.00  0.00    +0.000 A 
ATOM      8  C   UNL     1     -52.516 -44.298 -63.128  0.00  0.00    +0.000 A 
ATOM      9 CL   UNL     1     -52.731 -45.849 -62.401  0.00  0.00    +0.000 Cl
ATOM     10  C   UNL     1     -53.526 -43.327 -63.208  0.00  0.00    +0.000 A 
ATOM     11  C   UNL     1     -54.844 -43.470 -62.560  0.00  0.00    +0.000 A 
ATOM     12  O   UNL     1     -54.987 -44.109 -61.525  0.00  0.00    +0.000 OA
ATOM     13  C   UNL     1     -56.007 -42.740 -63.163  0.00  0.00    +0.000 A 
ATOM     14  H   UNL     1     -54.268 -40.429 -64.612  0.00  0.00    +0.000 HD
ENDROOT
BRANCH   1  15
ATOM     15  S   UNL     1     -56.872 -40.456 -64.547  0.00  0.00    +0.000 S 
ATOM     16  O   UNL     1     -57.845 -40.026 -63.484  0.00  0.00    +0.000 OA
BRANCH  15  17
ATOM     17  C   UNL     1     -57.796 -41.438 -65.765  0.00  0.00    +0.000 C 
BRANCH  17  21
ATOM     18  C   UNL     1     -55.031 -42.598 -69.916  0.00  0.00    +0.000 C 
ATOM     19  C   UNL     1     -55.891 -42.467 -68.725  0.00  0.00    +0.000 A 
ATOM     20  C   UNL     1     -56.135 -41.467 -67.813  0.00  0.00    +0.000 A 
ATOM     21  C   UNL     1     -57.150 -41.986 -66.980  0.00  0.00    +0.000 A 
ATOM     22  N   UNL     1     -57.447 -43.250 -67.329  0.00  0.00    +0.000 NA
ATOM     23  O   UNL     1     -56.658 -43.545 -68.422  0.00  0.00    +0.000 OA
ENDBRANCH  17  21
ENDBRANCH  15  17
ENDBRANCH   1  15
BRANCH  13  24
ATOM     24  C   UNL     1     -57.251 -43.557 -63.245  0.00  0.00    +0.000 C 
ATOM     25  O   UNL     1     -57.500 -44.207 -64.246  0.00  0.00    +0.000 OA
BRANCH  24  26
ATOM     26  C   UNL     1     -58.150 -43.604 -62.077  0.00  0.00    +0.000 C 
ATOM     27  C   UNL     1     -59.374 -42.725 -62.048  0.00  0.00    +0.000 C 
ATOM     28  C   UNL     1     -58.239 -42.446 -61.111  0.00  0.00    +0.000 C 
ENDBRANCH  24  26
ENDBRANCH  13  24
TORSDOF 5
ENDMDL
MODEL 3
REMARK VINA RESULT:    -6.936     12.046     13.490
REMARK INTER + INTRA:          -9.886
REMARK INTER:                  -9.000
REMARK INTRA:                  -0.885
REMARK UNBOUND:                -0.922
REMARK  Name = 
REMARK  6 active torsions:
REMARK  status: ('A' for Active; 'I' for Inactive)
REMARK    1  A    between atoms: C_1  and  C_2
REMARK    2  A    between atoms: C_4  and  C_5
REMARK    3  A    between atoms: C_5  and  S_6
REMARK    4  A    between atoms: S_6  and  C_8
REMARK    5  A    between atoms: C_20  and  C_21
REMARK    6  A    between atoms: C_21  and  C_23
REMARK                            x       y       z     vdW  Elec       q    Type
REMARK                         _______ _______ _______ _____ _____    ______ ____
ROOT
ATOM      1  C   UNL     1     -55.384 -41.395 -63.432  0.00  0.00    +0.000 A 
ATOM      2  N   UNL     1     -54.040 -41.086 -63.715  0.00  0.00    +0.000 N 
ATOM      3  C   UNL     1     -53.074 -42.120 -63.856  0.00  0.00    +0.000 A 
ATOM      4  C   UNL     1     -51.840 -41.934 -64.506  0.00  0.00    +0.000 A 
ATOM      5 BR   UNL     1     -51.443 -40.315 -65.411  0.00  0.00    +0.000 Br
ATOM      6  C   UNL     1     -50.871 -42.948 -64.527  0.00  0.00    +0.000 A 
ATOM      7  C   UNL     1     -51.143 -44.177 -63.915  0.00  0.00    +0.000 A 
ATOM      8  C   UNL     1     -52.360 -44.385 -63.267  0.00  0.00    +0.000 A 
ATOM      9 CL   UNL     1     -52.626 -45.959 -62.608  0.00  0.00    +0.000 Cl
ATOM     10  C   UNL     1     -53.307 -43.351 -63.222  0.00  0.00    +0.000 A 
ATOM     11  C   UNL     1     -54.583 -43.448 -62.488  0.00  0.00    +0.000 A 
ATOM     12  O   UNL     1     -54.697 -44.135 -61.480  0.00  0.00    +0.000 OA
ATOM     13  C   UNL     1     -55.735 -42.614 -62.966  0.00  0.00    +0.000 A 
ATOM     14  H   UNL     1     -53.952 -40.338 -64.417  0.00  0.00    +0.000 HD
ENDROOT
BRANCH   1  15
ATOM     15  S   UNL     1     -56.541 -40.207 -64.163  0.00  0.00    +0.000 S 
ATOM     16  O   UNL     1     -56.954 -40.845 -65.461  0.00  0.00    +0.000 OA
BRANCH  15  17
ATOM     17  C   UNL     1     -55.657 -38.672 -64.569  0.00  0.00    +0.000 C 
BRANCH  17  21
ATOM     18  C   UNL     1     -53.485 -35.261 -61.429  0.00  0.00    +0.000 C 
ATOM     19  C   UNL     1     -54.294 -36.189 -62.240  0.00  0.00    +0.000 A 
ATOM     20  C   UNL     1     -54.035 -37.025 -63.300  0.00  0.00    +0.000 A 
ATOM     21  C   UNL     1     -55.254 -37.701 -63.526  0.00  0.00    +0.000 A 
ATOM     22  N   UNL     1     -56.207 -37.245 -62.694  0.00  0.00    +0.000 NA
ATOM     23  O   UNL     1     -55.601 -36.301 -61.892  0.00  0.00    +0.000 OA
ENDBRANCH  17  21
ENDBRANCH  15  17
ENDBRANCH   1  15
BRANCH  13  24
ATOM     24  C   UNL     1     -57.032 -43.347 -63.000  0.00  0.00    +0.000 C 
ATOM     25  O   UNL     1     -57.279 -44.129 -63.902  0.00  0.00    +0.000 OA
BRANCH  24  26
ATOM     26  C   UNL     1     -57.992 -43.145 -61.898  0.00  0.00    +0.000 C 
ATOM     27  C   UNL     1     -59.346 -43.804 -61.964  0.00  0.00    +0.000 C 
ATOM     28  C   UNL     1     -59.239 -42.314 -62.089  0.00  0.00    +0.000 C 
ENDBRANCH  24  26
ENDBRANCH  13  24
TORSDOF 5
ENDMDL
MODEL 4
REMARK VINA RESULT:    -6.697     11.090     13.525
REMARK INTER + INTRA:          -9.576
REMARK INTER:                  -8.722
REMARK INTRA:                  -0.854
REMARK UNBOUND:                -0.922
REMARK  Name = 
REMARK  6 active torsions:
REMARK  status: ('A' for Active; 'I' for Inactive)
REMARK    1  A    between atoms: C_1  and  C_2
REMARK    2  A    between atoms: C_4  and  C_5
REMARK    3  A    between atoms: C_5  and  S_6
REMARK    4  A    between atoms: S_6  and  C_8
REMARK    5  A    between atoms: C_20  and  C_21
REMARK    6  A    between atoms: C_21  and  C_23
REMARK                            x       y       z     vdW  Elec       q    Type
REMARK                         _______ _______ _______ _____ _____    ______ ____
ROOT
ATOM      1  C   UNL     1     -57.740 -41.081 -62.722  0.00  0.00    +0.000 A 
ATOM      2  N   UNL     1     -57.257 -39.815 -62.338  0.00  0.00    +0.000 N 
ATOM      3  C   UNL     1     -56.180 -39.208 -63.041  0.00  0.00    +0.000 A 
ATOM      4  C   UNL     1     -55.905 -37.828 -62.981  0.00  0.00    +0.000 A 
ATOM      5 BR   UNL     1     -57.076 -36.634 -62.086  0.00  0.00    +0.000 Br
ATOM      6  C   UNL     1     -54.770 -37.288 -63.601  0.00  0.00    +0.000 A 
ATOM      7  C   UNL     1     -53.906 -38.126 -64.316  0.00  0.00    +0.000 A 
ATOM      8  C   UNL     1     -54.159 -39.496 -64.391  0.00  0.00    +0.000 A 
ATOM      9 CL   UNL     1     -53.075 -40.431 -65.356  0.00  0.00    +0.000 Cl
ATOM     10  C   UNL     1     -55.280 -40.030 -63.736  0.00  0.00    +0.000 A 
ATOM     11  C   UNL     1     -55.581 -41.474 -63.688  0.00  0.00    +0.000 A 
ATOM     12  O   UNL     1     -54.695 -42.318 -63.712  0.00  0.00    +0.000 OA
ATOM     13  C   UNL     1     -57.014 -41.888 -63.526  0.00  0.00    +0.000 A 
ATOM     14  H   UNL     1     -58.017 -39.163 -62.101  0.00  0.00    +0.000 HD
ENDROOT
BRANCH   1  15
ATOM     15  S   UNL     1     -59.516 -41.270 -62.416  0.00  0.00    +0.000 S 
ATOM     16  O   UNL     1     -59.995 -39.870 -62.142  0.00  0.00    +0.000 OA
BRANCH  15  17
ATOM     17  C   UNL     1     -59.770 -42.237 -60.899  0.00  0.00    +0.000 C 
BRANCH  17  21
ATOM     18  C   UNL     1     -61.847 -46.909 -61.174  0.00  0.00    +0.000 C 
ATOM     19  C   UNL     1     -61.413 -45.515 -60.969  0.00  0.00    +0.000 A 
ATOM     20  C   UNL     1     -60.307 -44.783 -61.329  0.00  0.00    +0.000 A 
ATOM     21  C   UNL     1     -60.588 -43.472 -60.885  0.00  0.00    +0.000 A 
ATOM     22  N   UNL     1     -61.763 -43.437 -60.233  0.00  0.00    +0.000 NA
ATOM     23  O   UNL     1     -62.276 -44.716 -60.290  0.00  0.00    +0.000 OA
ENDBRANCH  17  21
ENDBRANCH  15  17
ENDBRANCH   1  15
BRANCH  13  24
ATOM     24  C   UNL     1     -57.416 -43.014 -64.417  0.00  0.00    +0.000 C 
ATOM     25  O   UNL     1     -57.445 -44.157 -63.996  0.00  0.00    +0.000 OA
BRANCH  24  26
ATOM     26  C   UNL     1     -57.824 -42.713 -65.802  0.00  0.00    +0.000 C 
ATOM     27  C   UNL     1     -57.968 -43.840 -66.793  0.00  0.00    +0.000 C 
ATOM     28  C   UNL     1     -56.854 -42.850 -66.952  0.00  0.00    +0.000 C 
ENDBRANCH  24  26
ENDBRANCH  13  24
TORSDOF 5
ENDMDL
MODEL 5
REMARK VINA RESULT:    -6.306      3.058      4.663
REMARK INTER + INTRA:          -9.071
REMARK INTER:                  -8.027
REMARK INTRA:                  -1.045
REMARK UNBOUND:                -0.922
REMARK  Name = 
REMARK  6 active torsions:
REMARK  status: ('A' for Active; 'I' for Inactive)
REMARK    1  A    between atoms: C_1  and  C_2
REMARK    2  A    between atoms: C_4  and  C_5
REMARK    3  A    between atoms: C_5  and  S_6
REMARK    4  A    between atoms: S_6  and  C_8
REMARK    5  A    between atoms: C_20  and  C_21
REMARK    6  A    between atoms: C_21  and  C_23
REMARK                            x       y       z     vdW  Elec       q    Type
REMARK                         _______ _______ _______ _____ _____    ______ ____
ROOT
ATOM      1  C   UNL     1     -55.380 -42.831 -78.796  0.00  0.00    +0.000 A 
ATOM      2  N   UNL     1     -55.566 -44.216 -78.622  0.00  0.00    +0.000 N 
ATOM      3  C   UNL     1     -55.121 -44.862 -77.436  0.00  0.00    +0.000 A 
ATOM      4  C   UNL     1     -55.601 -46.118 -77.020  0.00  0.00    +0.000 A 
ATOM      5 BR   UNL     1     -57.029 -46.972 -77.931  0.00  0.00    +0.000 Br
ATOM      6  C   UNL     1     -55.056 -46.769 -75.904  0.00  0.00    +0.000 A 
ATOM      7  C   UNL     1     -54.035 -46.152 -75.172  0.00  0.00    +0.000 A 
ATOM      8  C   UNL     1     -53.545 -44.906 -75.564  0.00  0.00    +0.000 A 
ATOM      9 CL   UNL     1     -52.337 -44.197 -74.554  0.00  0.00    +0.000 Cl
ATOM     10  C   UNL     1     -54.074 -44.281 -76.704  0.00  0.00    +0.000 A 
ATOM     11  C   UNL     1     -53.562 -43.007 -77.243  0.00  0.00    +0.000 A 
ATOM     12  O   UNL     1     -52.388 -42.679 -77.119  0.00  0.00    +0.000 OA
ATOM     13  C   UNL     1     -54.506 -42.145 -78.028  0.00  0.00    +0.000 A 
ATOM     14  H   UNL     1     -56.494 -44.528 -78.940  0.00  0.00    +0.000 HD
ENDROOT
BRANCH   1  15
ATOM     15  S   UNL     1     -56.700 -42.069 -79.777  0.00  0.00    +0.000 S 
ATOM     16  O   UNL     1     -56.002 -40.995 -80.565  0.00  0.00    +0.000 OA
BRANCH  15  17
ATOM     17  C   UNL     1     -57.882 -41.248 -78.668  0.00  0.00    +0.000 C 
BRANCH  17  21
ATOM     18  C   UNL     1     -58.987 -42.122 -73.745  0.00  0.00    +0.000 C 
ATOM     19  C   UNL     1     -58.697 -42.080 -75.190  0.00  0.00    +0.000 A 
ATOM     20  C   UNL     1     -58.450 -41.077 -76.098  0.00  0.00    +0.000 A 
ATOM     21  C   UNL     1     -58.156 -41.753 -77.303  0.00  0.00    +0.000 A 
ATOM     22  N   UNL     1     -58.289 -43.082 -77.142  0.00  0.00    +0.000 NA
ATOM     23  O   UNL     1     -58.626 -43.280 -75.820  0.00  0.00    +0.000 OA
ENDBRANCH  17  21
ENDBRANCH  15  17
ENDBRANCH   1  15
BRANCH  13  24
ATOM     24  C   UNL     1     -54.421 -40.697 -77.684  0.00  0.00    +0.000 C 
ATOM     25  O   UNL     1     -55.146 -40.220 -76.828  0.00  0.00    +0.000 OA
BRANCH  24  26
ATOM     26  C   UNL     1     -53.413 -39.862 -78.365  0.00  0.00    +0.000 C 
ATOM     27  C   UNL     1     -53.182 -38.449 -77.895  0.00  0.00    +0.000 C 
ATOM     28  C   UNL     1     -53.820 -38.692 -79.229  0.00  0.00    +0.000 C 
ENDBRANCH  24  26
ENDBRANCH  13  24
TORSDOF 5
ENDMDL
MODEL 6
REMARK VINA RESULT:    -6.099      3.878      5.696
REMARK INTER + INTRA:          -8.803
REMARK INTER:                  -8.009
REMARK INTRA:                  -0.794
REMARK UNBOUND:                -0.922
REMARK  Name = 
REMARK  6 active torsions:
REMARK  status: ('A' for Active; 'I' for Inactive)
REMARK    1  A    between atoms: C_1  and  C_2
REMARK    2  A    between atoms: C_4  and  C_5
REMARK    3  A    between atoms: C_5  and  S_6
REMARK    4  A    between atoms: S_6  and  C_8
REMARK    5  A    between atoms: C_20  and  C_21
REMARK    6  A    between atoms: C_21  and  C_23
REMARK                            x       y       z     vdW  Elec       q    Type
REMARK                         _______ _______ _______ _____ _____    ______ ____
ROOT
ATOM      1  C   UNL     1     -56.051 -43.070 -78.730  0.00  0.00    +0.000 A 
ATOM      2  N   UNL     1     -56.051 -44.475 -78.630  0.00  0.00    +0.000 N 
ATOM      3  C   UNL     1     -55.459 -45.121 -77.510  0.00  0.00    +0.000 A 
ATOM      4  C   UNL     1     -55.752 -46.448 -77.146  0.00  0.00    +0.000 A 
ATOM      5 BR   UNL     1     -57.112 -47.429 -78.032  0.00  0.00    +0.000 Br
ATOM      6  C   UNL     1     -55.064 -47.083 -76.102  0.00  0.00    +0.000 A 
ATOM      7  C   UNL     1     -54.088 -46.378 -75.388  0.00  0.00    +0.000 A 
ATOM      8  C   UNL     1     -53.782 -45.061 -75.729  0.00  0.00    +0.000 A 
ATOM      9 CL   UNL     1     -52.615 -44.258 -74.741  0.00  0.00    +0.000 Cl
ATOM     10  C   UNL     1     -54.451 -44.449 -76.799  0.00  0.00    +0.000 A 
ATOM     11  C   UNL     1     -54.136 -43.093 -77.287  0.00  0.00    +0.000 A 
ATOM     12  O   UNL     1     -53.008 -42.624 -77.204  0.00  0.00    +0.000 OA
ATOM     13  C   UNL     1     -55.226 -42.319 -77.967  0.00  0.00    +0.000 A 
ATOM     14  H   UNL     1     -56.949 -44.886 -78.918  0.00  0.00    +0.000 HD
ENDROOT
BRANCH   1  15
ATOM     15  S   UNL     1     -57.512 -42.433 -79.592  0.00  0.00    +0.000 S 
ATOM     16  O   UNL     1     -56.960 -41.410 -80.547  0.00  0.00    +0.000 OA
BRANCH  15  17
ATOM     17  C   UNL     1     -58.579 -41.556 -78.412  0.00  0.00    +0.000 C 
BRANCH  17  21
ATOM     18  C   UNL     1     -61.751 -37.636 -79.300  0.00  0.00    +0.000 C 
ATOM     19  C   UNL     1     -60.899 -38.838 -79.235  0.00  0.00    +0.000 A 
ATOM     20  C   UNL     1     -59.950 -39.304 -78.356  0.00  0.00    +0.000 A 
ATOM     21  C   UNL     1     -59.598 -40.577 -78.855  0.00  0.00    +0.000 A 
ATOM     22  N   UNL     1     -60.247 -40.828 -80.006  0.00  0.00    +0.000 NA
ATOM     23  O   UNL     1     -61.060 -39.738 -80.237  0.00  0.00    +0.000 OA
ENDBRANCH  17  21
ENDBRANCH  15  17
ENDBRANCH   1  15
BRANCH  13  24
ATOM     24  C   UNL     1     -55.303 -40.892 -77.542  0.00  0.00    +0.000 C 
ATOM     25  O   UNL     1     -55.706 -40.599 -76.429  0.00  0.00    +0.000 OA
BRANCH  24  26
ATOM     26  C   UNL     1     -54.839 -39.846 -78.472  0.00  0.00    +0.000 C 
ATOM     27  C   UNL     1     -53.749 -40.166 -79.463  0.00  0.00    +0.000 C 
ATOM     28  C   UNL     1     -53.470 -39.224 -78.331  0.00  0.00    +0.000 C 
ENDBRANCH  24  26
ENDBRANCH  13  24
TORSDOF 5
ENDMDL
MODEL 7
REMARK VINA RESULT:    -6.020     20.265     24.306
REMARK INTER + INTRA:          -8.701
REMARK INTER:                  -7.647
REMARK INTRA:                  -1.054
REMARK UNBOUND:                -0.922
REMARK  Name = 
REMARK  6 active torsions:
REMARK  status: ('A' for Active; 'I' for Inactive)
REMARK    1  A    between atoms: C_1  and  C_2
REMARK    2  A    between atoms: C_4  and  C_5
REMARK    3  A    between atoms: C_5  and  S_6
REMARK    4  A    between atoms: S_6  and  C_8
REMARK    5  A    between atoms: C_20  and  C_21
REMARK    6  A    between atoms: C_21  and  C_23
REMARK                            x       y       z     vdW  Elec       q    Type
REMARK                         _______ _______ _______ _____ _____    ______ ____
ROOT
ATOM      1  C   UNL     1     -65.747 -47.355 -55.640  0.00  0.00    +0.000 A 
ATOM      2  N   UNL     1     -66.579 -48.395 -56.098  0.00  0.00    +0.000 N 
ATOM      3  C   UNL     1     -66.815 -49.542 -55.291  0.00  0.00    +0.000 A 
ATOM      4  C   UNL     1     -67.905 -50.410 -55.492  0.00  0.00    +0.000 A 
ATOM      5 BR   UNL     1     -69.257 -50.009 -56.760  0.00  0.00    +0.000 Br
ATOM      6  C   UNL     1     -68.039 -51.589 -54.744  0.00  0.00    +0.000 A 
ATOM      7  C   UNL     1     -67.091 -51.898 -53.762  0.00  0.00    +0.000 A 
ATOM      8  C   UNL     1     -66.004 -51.051 -53.544  0.00  0.00    +0.000 A 
ATOM      9 CL   UNL     1     -64.932 -51.484 -52.262  0.00  0.00    +0.000 Cl
ATOM     10  C   UNL     1     -65.862 -49.893 -54.323  0.00  0.00    +0.000 A 
ATOM     11  C   UNL     1     -64.703 -48.984 -54.224  0.00  0.00    +0.000 A 
ATOM     12  O   UNL     1     -63.592 -49.389 -53.906  0.00  0.00    +0.000 OA
ATOM     13  C   UNL     1     -64.902 -47.547 -54.603  0.00  0.00    +0.000 A 
ATOM     14  H   UNL     1     -67.422 -48.040 -56.571  0.00  0.00    +0.000 HD
ENDROOT
BRANCH   1  15
ATOM     15  S   UNL     1     -66.257 -45.731 -56.260  0.00  0.00    +0.000 S 
ATOM     16  O   UNL     1     -67.274 -46.044 -57.323  0.00  0.00    +0.000 OA
BRANCH  15  17
ATOM     17  C   UNL     1     -64.849 -44.922 -57.075  0.00  0.00    +0.000 C 
BRANCH  17  21
ATOM     18  C   UNL     1     -62.106 -47.210 -60.744  0.00  0.00    +0.000 C 
ATOM     19  C   UNL     1     -62.729 -46.588 -59.561  0.00  0.00    +0.000 A 
ATOM     20  C   UNL     1     -63.899 -45.903 -59.331  0.00  0.00    +0.000 A 
ATOM     21  C   UNL     1     -63.908 -45.673 -57.938  0.00  0.00    +0.000 A 
ATOM     22  N   UNL     1     -62.775 -46.131 -57.377  0.00  0.00    +0.000 NA
ATOM     23  O   UNL     1     -62.042 -46.703 -58.396  0.00  0.00    +0.000 OA
ENDBRANCH  17  21
ENDBRANCH  15  17
ENDBRANCH   1  15
BRANCH  13  24
ATOM     24  C   UNL     1     -64.268 -46.584 -53.658  0.00  0.00    +0.000 C 
ATOM     25  O   UNL     1     -63.436 -45.785 -54.052  0.00  0.00    +0.000 OA
BRANCH  24  26
ATOM     26  C   UNL     1     -64.699 -46.584 -52.247  0.00  0.00    +0.000 C 
ATOM     27  C   UNL     1     -63.939 -45.760 -51.240  0.00  0.00    +0.000 C 
ATOM     28  C   UNL     1     -63.874 -47.255 -51.176  0.00  0.00    +0.000 C 
ENDBRANCH  24  26
ENDBRANCH  13  24
TORSDOF 5
ENDMDL
MODEL 8
REMARK VINA RESULT:    -5.972     11.471     13.471
REMARK INTER + INTRA:          -8.639
REMARK INTER:                  -7.660
REMARK INTRA:                  -0.978
REMARK UNBOUND:                -0.922
REMARK  Name = 
REMARK  6 active torsions:
REMARK  status: ('A' for Active; 'I' for Inactive)
REMARK    1  A    between atoms: C_1  and  C_2
REMARK    2  A    between atoms: C_4  and  C_5
REMARK    3  A    between atoms: C_5  and  S_6
REMARK    4  A    between atoms: S_6  and  C_8
REMARK    5  A    between atoms: C_20  and  C_21
REMARK    6  A    between atoms: C_21  and  C_23
REMARK                            x       y       z     vdW  Elec       q    Type
REMARK                         _______ _______ _______ _____ _____    ______ ____
ROOT
ATOM      1  C   UNL     1     -57.505 -41.111 -62.625  0.00  0.00    +0.000 A 
ATOM      2  N   UNL     1     -57.082 -39.817 -62.266  0.00  0.00    +0.000 N 
ATOM      3  C   UNL     1     -56.046 -39.166 -62.991  0.00  0.00    +0.000 A 
ATOM      4  C   UNL     1     -55.841 -37.774 -62.955  0.00  0.00    +0.000 A 
ATOM      5 BR   UNL     1     -57.061 -36.627 -62.064  0.00  0.00    +0.000 Br
ATOM      6  C   UNL     1     -54.741 -37.187 -63.596  0.00  0.00    +0.000 A 
ATOM      7  C   UNL     1     -53.844 -37.991 -64.308  0.00  0.00    +0.000 A 
ATOM      8  C   UNL     1     -54.028 -39.373 -64.359  0.00  0.00    +0.000 A 
ATOM      9 CL   UNL     1     -52.908 -40.266 -65.323  0.00  0.00    +0.000 Cl
ATOM     10  C   UNL     1     -55.112 -39.952 -63.684  0.00  0.00    +0.000 A 
ATOM     11  C   UNL     1     -55.339 -41.409 -63.610  0.00  0.00    +0.000 A 
ATOM     12  O   UNL     1     -54.411 -42.208 -63.632  0.00  0.00    +0.000 OA
ATOM     13  C   UNL     1     -56.746 -41.893 -63.425  0.00  0.00    +0.000 A 
ATOM     14  H   UNL     1     -57.872 -39.201 -62.030  0.00  0.00    +0.000 HD
ENDROOT
BRANCH   1  15
ATOM     15  S   UNL     1     -59.265 -41.386 -62.295  0.00  0.00    +0.000 S 
ATOM     16  O   UNL     1     -59.955 -40.896 -63.539  0.00  0.00    +0.000 OA
BRANCH  15  17
ATOM     17  C   UNL     1     -59.798 -40.321 -60.922  0.00  0.00    +0.000 C 
BRANCH  17  21
ATOM     18  C   UNL     1     -62.755 -36.141 -60.958  0.00  0.00    +0.000 C 
ATOM     19  C   UNL     1     -61.781 -37.241 -61.088  0.00  0.00    +0.000 A 
ATOM     20  C   UNL     1     -61.608 -38.457 -60.471  0.00  0.00    +0.000 A 
ATOM     21  C   UNL     1     -60.523 -39.051 -61.153  0.00  0.00    +0.000 A 
ATOM     22  N   UNL     1     -60.030 -38.208 -62.077  0.00  0.00    +0.000 NA
ATOM     23  O   UNL     1     -60.821 -37.079 -62.033  0.00  0.00    +0.000 OA
ENDBRANCH  17  21
ENDBRANCH  15  17
ENDBRANCH   1  15
BRANCH  13  24
ATOM     24  C   UNL     1     -57.100 -43.052 -64.294  0.00  0.00    +0.000 C 
ATOM     25  O   UNL     1     -57.365 -44.136 -63.803  0.00  0.00    +0.000 OA
BRANCH  24  26
ATOM     26  C   UNL     1     -57.171 -42.851 -65.753  0.00  0.00    +0.000 C 
ATOM     27  C   UNL     1     -57.721 -41.557 -66.298  0.00  0.00    +0.000 C 
ATOM     28  C   UNL     1     -58.497 -42.827 -66.477  0.00  0.00    +0.000 C 
ENDBRANCH  24  26
ENDBRANCH  13  24
TORSDOF 5
ENDMDL
MODEL 9
REMARK VINA RESULT:    -5.945     21.879     25.817
REMARK INTER + INTRA:          -8.605
REMARK INTER:                  -7.754
REMARK INTRA:                  -0.851
REMARK UNBOUND:                -0.922
REMARK  Name = 
REMARK  6 active torsions:
REMARK  status: ('A' for Active; 'I' for Inactive)
REMARK    1  A    between atoms: C_1  and  C_2
REMARK    2  A    between atoms: C_4  and  C_5
REMARK    3  A    between atoms: C_5  and  S_6
REMARK    4  A    between atoms: S_6  and  C_8
REMARK    5  A    between atoms: C_20  and  C_21
REMARK    6  A    between atoms: C_21  and  C_23
REMARK                            x       y       z     vdW  Elec       q    Type
REMARK                         _______ _______ _______ _____ _____    ______ ____
ROOT
ATOM      1  C   UNL     1     -66.413 -49.328 -54.451  0.00  0.00    +0.000 A 
ATOM      2  N   UNL     1     -67.124 -50.260 -55.231  0.00  0.00    +0.000 N 
ATOM      3  C   UNL     1     -67.544 -51.499 -54.675  0.00  0.00    +0.000 A 
ATOM      4  C   UNL     1     -68.563 -52.289 -55.239  0.00  0.00    +0.000 A 
ATOM      5 BR   UNL     1     -69.589 -51.661 -56.706  0.00  0.00    +0.000 Br
ATOM      6  C   UNL     1     -68.870 -53.555 -54.722  0.00  0.00    +0.000 A 
ATOM      7  C   UNL     1     -68.172 -54.036 -53.607  0.00  0.00    +0.000 A 
ATOM      8  C   UNL     1     -67.159 -53.270 -53.030  0.00  0.00    +0.000 A 
ATOM      9 CL   UNL     1     -66.409 -53.920 -51.617  0.00  0.00    +0.000 Cl
ATOM     10  C   UNL     1     -66.837 -52.020 -53.579  0.00  0.00    +0.000 A 
ATOM     11  C   UNL     1     -65.727 -51.179 -53.090  0.00  0.00    +0.000 A 
ATOM     12  O   UNL     1     -64.719 -51.666 -52.594  0.00  0.00    +0.000 OA
ATOM     13  C   UNL     1     -65.828 -49.696 -53.290  0.00  0.00    +0.000 A 
ATOM     14  H   UNL     1     -67.836 -49.810 -55.824  0.00  0.00    +0.000 HD
ENDROOT
BRANCH   1  15
ATOM     15  S   UNL     1     -66.761 -47.614 -54.925  0.00  0.00    +0.000 S 
ATOM     16  O   UNL     1     -68.211 -47.421 -54.574  0.00  0.00    +0.000 OA
BRANCH  15  17
ATOM     17  C   UNL     1     -66.611 -47.440 -56.727  0.00  0.00    +0.000 C 
BRANCH  17  21
ATOM     18  C   UNL     1     -61.872 -46.085 -58.115  0.00  0.00    +0.000 C 
ATOM     19  C   UNL     1     -63.272 -46.506 -57.923  0.00  0.00    +0.000 A 
ATOM     20  C   UNL     1     -64.069 -46.745 -56.828  0.00  0.00    +0.000 A 
ATOM     21  C   UNL     1     -65.342 -47.027 -57.371  0.00  0.00    +0.000 A 
ATOM     22  N   UNL     1     -65.293 -47.027 -58.714  0.00  0.00    +0.000 NA
ATOM     23  O   UNL     1     -63.997 -46.700 -59.054  0.00  0.00    +0.000 OA
ENDBRANCH  17  21
ENDBRANCH  15  17
ENDBRANCH   1  15
BRANCH  13  24
ATOM     24  C   UNL     1     -65.420 -48.901 -52.096  0.00  0.00    +0.000 C 
ATOM     25  O   UNL     1     -66.179 -48.770 -51.151  0.00  0.00    +0.000 OA
BRANCH  24  26
ATOM     26  C   UNL     1     -64.066 -48.317 -52.059  0.00  0.00    +0.000 C 
ATOM     27  C   UNL     1     -63.764 -47.208 -51.084  0.00  0.00    +0.000 C 
ATOM     28  C   UNL     1     -63.805 -46.914 -52.553  0.00  0.00    +0.000 C 
ENDBRANCH  24  26
ENDBRANCH  13  24
TORSDOF 5
ENDMDL
MODEL 10
REMARK VINA RESULT:    -5.870     12.299     14.270
REMARK INTER + INTRA:          -8.508
REMARK INTER:                  -7.657
REMARK INTRA:                  -0.851
REMARK UNBOUND:                -0.922
REMARK  Name = 
REMARK  6 active torsions:
REMARK  status: ('A' for Active; 'I' for Inactive)
REMARK    1  A    between atoms: C_1  and  C_2
REMARK    2  A    between atoms: C_4  and  C_5
REMARK    3  A    between atoms: C_5  and  S_6
REMARK    4  A    between atoms: S_6  and  C_8
REMARK    5  A    between atoms: C_20  and  C_21
REMARK    6  A    between atoms: C_21  and  C_23
REMARK                            x       y       z     vdW  Elec       q    Type
REMARK                         _______ _______ _______ _____ _____    ______ ____
ROOT
ATOM      1  C   UNL     1     -56.868 -38.468 -62.519  0.00  0.00    +0.000 A 
ATOM      2  N   UNL     1     -56.725 -39.785 -62.997  0.00  0.00    +0.000 N 
ATOM      3  C   UNL     1     -55.489 -40.225 -63.546  0.00  0.00    +0.000 A 
ATOM      4  C   UNL     1     -55.147 -41.584 -63.677  0.00  0.00    +0.000 A 
ATOM      5 BR   UNL     1     -56.253 -42.945 -62.953  0.00  0.00    +0.000 Br
ATOM      6  C   UNL     1     -53.967 -41.976 -64.324  0.00  0.00    +0.000 A 
ATOM      7  C   UNL     1     -53.097 -41.002 -64.827  0.00  0.00    +0.000 A 
ATOM      8  C   UNL     1     -53.414 -39.649 -64.708  0.00  0.00    +0.000 A 
ATOM      9 CL   UNL     1     -52.242 -38.526 -65.297  0.00  0.00    +0.000 Cl
ATOM     10  C   UNL     1     -54.615 -39.270 -64.090  0.00  0.00    +0.000 A 
ATOM     11  C   UNL     1     -55.075 -37.871 -63.994  0.00  0.00    +0.000 A 
ATOM     12  O   UNL     1     -54.786 -37.038 -64.844  0.00  0.00    +0.000 OA
ATOM     13  C   UNL     1     -55.983 -37.505 -62.858  0.00  0.00    +0.000 A 
ATOM     14  H   UNL     1     -57.172 -40.475 -62.377  0.00  0.00    +0.000 HD
ENDROOT
BRANCH   1  15
ATOM     15  S   UNL     1     -58.024 -38.354 -61.128  0.00  0.00    +0.000 S 
ATOM     16  O   UNL     1     -57.873 -39.669 -60.414  0.00  0.00    +0.000 OA
BRANCH  15  17
ATOM     17  C   UNL     1     -59.726 -38.268 -61.758  0.00  0.00    +0.000 C 
BRANCH  17  21
ATOM     18  C   UNL     1     -61.691 -33.611 -62.575  0.00  0.00    +0.000 C 
ATOM     19  C   UNL     1     -61.313 -34.999 -62.250  0.00  0.00    +0.000 A 
ATOM     20  C   UNL     1     -60.218 -35.789 -62.510  0.00  0.00    +0.000 A 
ATOM     21  C   UNL     1     -60.475 -36.993 -61.817  0.00  0.00    +0.000 A 
ATOM     22  N   UNL     1     -61.687 -36.951 -61.235  0.00  0.00    +0.000 NA
ATOM     23  O   UNL     1     -62.205 -35.702 -61.508  0.00  0.00    +0.000 OA
ENDBRANCH  17  21
ENDBRANCH  15  17
ENDBRANCH   1  15
BRANCH  13  24
ATOM     24  C   UNL     1     -55.628 -36.216 -62.199  0.00  0.00    +0.000 C 
ATOM     25  O   UNL     1     -54.629 -36.129 -61.505  0.00  0.00    +0.000 OA
BRANCH  24  26
ATOM     26  C   UNL     1     -56.480 -35.036 -62.439  0.00  0.00    +0.000 C 
ATOM     27  C   UNL     1     -56.041 -33.689 -61.926  0.00  0.00    +0.000 C 
ATOM     28  C   UNL     1     -57.226 -34.367 -61.309  0.00  0.00    +0.000 C 
ENDBRANCH  24  26
ENDBRANCH  13  24
TORSDOF 5
ENDMDL
MODEL 11
REMARK VINA RESULT:    -5.730     12.902     15.116
REMARK INTER + INTRA:          -8.327
REMARK INTER:                  -7.506
REMARK INTRA:                  -0.821
REMARK UNBOUND:                -0.922
REMARK  Name = 
REMARK  6 active torsions:
REMARK  status: ('A' for Active; 'I' for Inactive)
REMARK    1  A    between atoms: C_1  and  C_2
REMARK    2  A    between atoms: C_4  and  C_5
REMARK    3  A    between atoms: C_5  and  S_6
REMARK    4  A    between atoms: S_6  and  C_8
REMARK    5  A    between atoms: C_20  and  C_21
REMARK    6  A    between atoms: C_21  and  C_23
REMARK                            x       y       z     vdW  Elec       q    Type
REMARK                         _______ _______ _______ _____ _____    ______ ____
ROOT
ATOM      1  C   UNL     1     -56.767 -40.907 -61.229  0.00  0.00    +0.000 A 
ATOM      2  N   UNL     1     -56.648 -41.805 -60.150  0.00  0.00    +0.000 N 
ATOM      3  C   UNL     1     -55.604 -42.770 -60.124  0.00  0.00    +0.000 A 
ATOM      4  C   UNL     1     -55.185 -43.417 -58.946  0.00  0.00    +0.000 A 
ATOM      5 BR   UNL     1     -55.874 -42.909 -57.253  0.00  0.00    +0.000 Br
ATOM      6  C   UNL     1     -54.229 -44.441 -58.981  0.00  0.00    +0.000 A 
ATOM      7  C   UNL     1     -53.657 -44.812 -60.204  0.00  0.00    +0.000 A 
ATOM      8  C   UNL     1     -54.054 -44.184 -61.384  0.00  0.00    +0.000 A 
ATOM      9 CL   UNL     1     -53.237 -44.663 -62.828  0.00  0.00    +0.000 Cl
ATOM     10  C   UNL     1     -55.038 -43.185 -61.340  0.00  0.00    +0.000 A 
ATOM     11  C   UNL     1     -55.582 -42.525 -62.543  0.00  0.00    +0.000 A 
ATOM     12  O   UNL     1     -55.653 -43.105 -63.619  0.00  0.00    +0.000 OA
ATOM     13  C   UNL     1     -56.128 -41.136 -62.397  0.00  0.00    +0.000 A 
ATOM     14  H   UNL     1     -56.811 -41.347 -59.243  0.00  0.00    +0.000 HD
ENDROOT
BRANCH   1  15
ATOM     15  S   UNL     1     -57.444 -39.302 -60.728  0.00  0.00    +0.000 S 
ATOM     16  O   UNL     1     -57.900 -39.520 -59.311  0.00  0.00    +0.000 OA
BRANCH  15  17
ATOM     17  C   UNL     1     -58.917 -38.929 -61.723  0.00  0.00    +0.000 C 
BRANCH  17  21
ATOM     18  C   UNL     1     -61.179 -34.431 -62.659  0.00  0.00    +0.000 C 
ATOM     19  C   UNL     1     -60.349 -35.613 -62.362  0.00  0.00    +0.000 A 
ATOM     20  C   UNL     1     -60.602 -36.954 -62.192  0.00  0.00    +0.000 A 
ATOM     21  C   UNL     1     -59.326 -37.537 -62.024  0.00  0.00    +0.000 A 
ATOM     22  N   UNL     1     -58.371 -36.591 -62.023  0.00  0.00    +0.000 NA
ATOM     23  O   UNL     1     -59.016 -35.390 -62.236  0.00  0.00    +0.000 OA
ENDBRANCH  17  21
ENDBRANCH  15  17
ENDBRANCH   1  15
BRANCH  13  24
ATOM     24  C   UNL     1     -55.717 -40.213 -63.493  0.00  0.00    +0.000 C 
ATOM     25  O   UNL     1     -56.532 -39.818 -64.309  0.00  0.00    +0.000 OA
BRANCH  24  26
ATOM     26  C   UNL     1     -54.318 -39.748 -63.544  0.00  0.00    +0.000 C 
ATOM     27  C   UNL     1     -53.901 -38.770 -64.613  0.00  0.00    +0.000 C 
ATOM     28  C   UNL     1     -53.390 -40.178 -64.655  0.00  0.00    +0.000 C 
ENDBRANCH  24  26
ENDBRANCH  13  24
TORSDOF 5
ENDMDL
MODEL 12
REMARK VINA RESULT:    -5.580     22.019     25.565
REMARK INTER + INTRA:          -8.133
REMARK INTER:                  -7.314
REMARK INTRA:                  -0.819
REMARK UNBOUND:                -0.922
REMARK  Name = 
REMARK  6 active torsions:
REMARK  status: ('A' for Active; 'I' for Inactive)
REMARK    1  A    between atoms: C_1  and  C_2
REMARK    2  A    between atoms: C_4  and  C_5
REMARK    3  A    between atoms: C_5  and  S_6
REMARK    4  A    between atoms: S_6  and  C_8
REMARK    5  A    between atoms: C_20  and  C_21
REMARK    6  A    between atoms: C_21  and  C_23
REMARK                            x       y       z     vdW  Elec       q    Type
REMARK                         _______ _______ _______ _____ _____    ______ ____
ROOT
ATOM      1  C   UNL     1     -68.003 -49.552 -54.925  0.00  0.00    +0.000 A 
ATOM      2  N   UNL     1     -66.975 -49.507 -53.963  0.00  0.00    +0.000 N 
ATOM      3  C   UNL     1     -66.496 -50.702 -53.361  0.00  0.00    +0.000 A 
ATOM      4  C   UNL     1     -65.251 -50.788 -52.710  0.00  0.00    +0.000 A 
ATOM      5 BR   UNL     1     -64.025 -49.341 -52.745  0.00  0.00    +0.000 Br
ATOM      6  C   UNL     1     -64.864 -51.955 -52.034  0.00  0.00    +0.000 A 
ATOM      7  C   UNL     1     -65.716 -53.065 -52.027  0.00  0.00    +0.000 A 
ATOM      8  C   UNL     1     -66.955 -53.004 -52.667  0.00  0.00    +0.000 A 
ATOM      9 CL   UNL     1     -67.900 -54.449 -52.662  0.00  0.00    +0.000 Cl
ATOM     10  C   UNL     1     -67.345 -51.819 -53.309  0.00  0.00    +0.000 A 
ATOM     11  C   UNL     1     -68.667 -51.632 -53.937  0.00  0.00    +0.000 A 
ATOM     12  O   UNL     1     -69.666 -52.206 -53.520  0.00  0.00    +0.000 OA
ATOM     13  C   UNL     1     -68.778 -50.650 -55.065  0.00  0.00    +0.000 A 
ATOM     14  H   UNL     1     -66.231 -48.844 -54.219  0.00  0.00    +0.000 HD
ENDROOT
BRANCH   1  15
ATOM     15  S   UNL     1     -67.851 -48.241 -56.167  0.00  0.00    +0.000 S 
ATOM     16  O   UNL     1     -67.300 -48.942 -57.379  0.00  0.00    +0.000 OA
BRANCH  15  17
ATOM     17  C   UNL     1     -66.605 -47.034 -55.626  0.00  0.00    +0.000 C 
BRANCH  17  21
ATOM     18  C   UNL     1     -62.111 -46.363 -57.987  0.00  0.00    +0.000 C 
ATOM     19  C   UNL     1     -63.493 -46.473 -57.482  0.00  0.00    +0.000 A 
ATOM     20  C   UNL     1     -64.072 -47.014 -56.359  0.00  0.00    +0.000 A 
ATOM     21  C   UNL     1     -65.440 -46.679 -56.469  0.00  0.00    +0.000 A 
ATOM     22  N   UNL     1     -65.677 -46.036 -57.626  0.00  0.00    +0.000 NA
ATOM     23  O   UNL     1     -64.456 -45.909 -58.254  0.00  0.00    +0.000 OA
ENDBRANCH  17  21
ENDBRANCH  15  17
ENDBRANCH   1  15
BRANCH  13  24
ATOM     24  C   UNL     1     -69.591 -51.144 -56.212  0.00  0.00    +0.000 C 
ATOM     25  O   UNL     1     -69.259 -52.147 -56.820  0.00  0.00    +0.000 OA
BRANCH  24  26
ATOM     26  C   UNL     1     -70.828 -50.424 -56.570  0.00  0.00    +0.000 C 
ATOM     27  C   UNL     1     -71.683 -50.937 -57.700  0.00  0.00    +0.000 C 
ATOM     28  C   UNL     1     -70.937 -49.647 -57.860  0.00  0.00    +0.000 C 
ENDBRANCH  24  26
ENDBRANCH  13  24
TORSDOF 5
ENDMDL
MODEL 13
REMARK VINA RESULT:    -5.223      4.522      8.156
REMARK INTER + INTRA:          -7.671
REMARK INTER:                  -6.833
REMARK INTRA:                  -0.837
REMARK UNBOUND:                -0.922
REMARK  Name = 
REMARK  6 active torsions:
REMARK  status: ('A' for Active; 'I' for Inactive)
REMARK    1  A    between atoms: C_1  and  C_2
REMARK    2  A    between atoms: C_4  and  C_5
REMARK    3  A    between atoms: C_5  and  S_6
REMARK    4  A    between atoms: S_6  and  C_8
REMARK    5  A    between atoms: C_20  and  C_21
REMARK    6  A    between atoms: C_21  and  C_23
REMARK                            x       y       z     vdW  Elec       q    Type
REMARK                         _______ _______ _______ _____ _____    ______ ____
ROOT
ATOM      1  C   UNL     1     -55.320 -41.887 -79.178  0.00  0.00    +0.000 A 
ATOM      2  N   UNL     1     -56.254 -42.045 -80.220  0.00  0.00    +0.000 N 
ATOM      3  C   UNL     1     -57.648 -42.087 -79.942  0.00  0.00    +0.000 A 
ATOM      4  C   UNL     1     -58.633 -41.851 -80.919  0.00  0.00    +0.000 A 
ATOM      5 BR   UNL     1     -58.162 -41.275 -82.665  0.00  0.00    +0.000 Br
ATOM      6  C   UNL     1     -59.995 -42.010 -80.629  0.00  0.00    +0.000 A 
ATOM      7  C   UNL     1     -60.389 -42.383 -79.339  0.00  0.00    +0.000 A 
ATOM      8  C   UNL     1     -59.431 -42.621 -78.353  0.00  0.00    +0.000 A 
ATOM      9 CL   UNL     1     -60.022 -43.006 -76.777  0.00  0.00    +0.000 Cl
ATOM     10  C   UNL     1     -58.069 -42.493 -78.666  0.00  0.00    +0.000 A 
ATOM     11  C   UNL     1     -56.984 -42.806 -77.716  0.00  0.00    +0.000 A 
ATOM     12  O   UNL     1     -57.114 -43.659 -76.847  0.00  0.00    +0.000 OA
ATOM     13  C   UNL     1     -55.672 -42.101 -77.890  0.00  0.00    +0.000 A 
ATOM     14  H   UNL     1     -56.013 -41.482 -81.047  0.00  0.00    +0.000 HD
ENDROOT
BRANCH   1  15
ATOM     15  S   UNL     1     -53.842 -40.977 -79.698  0.00  0.00    +0.000 S 
ATOM     16  O   UNL     1     -54.140 -39.549 -79.330  0.00  0.00    +0.000 OA
BRANCH  15  17
ATOM     17  C   UNL     1     -53.690 -41.051 -81.507  0.00  0.00    +0.000 C 
BRANCH  17  21
ATOM     18  C   UNL     1     -49.907 -42.751 -84.509  0.00  0.00    +0.000 C 
ATOM     19  C   UNL     1     -50.887 -42.348 -83.484  0.00  0.00    +0.000 A 
ATOM     20  C   UNL     1     -52.034 -41.591 -83.488  0.00  0.00    +0.000 A 
ATOM     21  C   UNL     1     -52.532 -41.694 -82.170  0.00  0.00    +0.000 A 
ATOM     22  N   UNL     1     -51.693 -42.413 -81.404  0.00  0.00    +0.000 NA
ATOM     23  O   UNL     1     -50.667 -42.820 -82.231  0.00  0.00    +0.000 OA
ENDBRANCH  17  21
ENDBRANCH  15  17
ENDBRANCH   1  15
BRANCH  13  24
ATOM     24  C   UNL     1     -55.080 -41.612 -76.613  0.00  0.00    +0.000 C 
ATOM     25  O   UNL     1     -55.633 -40.737 -75.968  0.00  0.00    +0.000 OA
BRANCH  24  26
ATOM     26  C   UNL     1     -53.839 -42.238 -76.118  0.00  0.00    +0.000 C 
ATOM     27  C   UNL     1     -53.649 -43.725 -76.267  0.00  0.00    +0.000 C 
ATOM     28  C   UNL     1     -53.846 -43.136 -74.904  0.00  0.00    +0.000 C 
ENDBRANCH  24  26
ENDBRANCH  13  24
TORSDOF 5
ENDMDL
MODEL 14
REMARK VINA RESULT:    -5.205      9.860     12.100
REMARK INTER + INTRA:          -7.649
REMARK INTER:                  -6.463
REMARK INTRA:                  -1.186
REMARK UNBOUND:                -0.922
REMARK  Name = 
REMARK  6 active torsions:
REMARK  status: ('A' for Active; 'I' for Inactive)
REMARK    1  A    between atoms: C_1  and  C_2
REMARK    2  A    between atoms: C_4  and  C_5
REMARK    3  A    between atoms: C_5  and  S_6
REMARK    4  A    between atoms: S_6  and  C_8
REMARK    5  A    between atoms: C_20  and  C_21
REMARK    6  A    between atoms: C_21  and  C_23
REMARK                            x       y       z     vdW  Elec       q    Type
REMARK                         _______ _______ _______ _____ _____    ______ ____
ROOT
ATOM      1  C   UNL     1     -65.809 -42.492 -69.675  0.00  0.00    +0.000 A 
ATOM      2  N   UNL     1     -64.499 -42.428 -69.161  0.00  0.00    +0.000 N 
ATOM      3  C   UNL     1     -63.383 -42.315 -70.035  0.00  0.00    +0.000 A 
ATOM      4  C   UNL     1     -62.120 -41.862 -69.612  0.00  0.00    +0.000 A 
ATOM      5 BR   UNL     1     -61.857 -41.190 -67.857  0.00  0.00    +0.000 Br
ATOM      6  C   UNL     1     -61.019 -41.870 -70.480  0.00  0.00    +0.000 A 
ATOM      7  C   UNL     1     -61.180 -42.309 -71.799  0.00  0.00    +0.000 A 
ATOM      8  C   UNL     1     -62.423 -42.761 -72.241  0.00  0.00    +0.000 A 
ATOM      9 CL   UNL     1     -62.535 -43.213 -73.904  0.00  0.00    +0.000 Cl
ATOM     10  C   UNL     1     -63.509 -42.781 -71.353  0.00  0.00    +0.000 A 
ATOM     11  C   UNL     1     -64.837 -43.320 -71.705  0.00  0.00    +0.000 A 
ATOM     12  O   UNL     1     -64.970 -44.228 -72.516  0.00  0.00    +0.000 OA
ATOM     13  C   UNL     1     -66.031 -42.778 -70.977  0.00  0.00    +0.000 A 
ATOM     14  H   UNL     1     -64.437 -41.825 -68.329  0.00  0.00    +0.000 HD
ENDROOT
BRANCH   1  15
ATOM     15  S   UNL     1     -67.029 -41.735 -68.570  0.00  0.00    +0.000 S 
ATOM     16  O   UNL     1     -66.200 -41.066 -67.507  0.00  0.00    +0.000 OA
BRANCH  15  17
ATOM     17  C   UNL     1     -68.003 -43.038 -67.759  0.00  0.00    +0.000 C 
BRANCH  17  21
ATOM     18  C   UNL     1     -70.194 -46.861 -70.366  0.00  0.00    +0.000 C 
ATOM     19  C   UNL     1     -69.760 -45.681 -69.596  0.00  0.00    +0.000 A 
ATOM     20  C   UNL     1     -68.564 -45.259 -69.067  0.00  0.00    +0.000 A 
ATOM     21  C   UNL     1     -68.844 -43.982 -68.531  0.00  0.00    +0.000 A 
ATOM     22  N   UNL     1     -70.148 -43.688 -68.670  0.00  0.00    +0.000 NA
ATOM     23  O   UNL     1     -70.716 -44.753 -69.338  0.00  0.00    +0.000 OA
ENDBRANCH  17  21
ENDBRANCH  15  17
ENDBRANCH   1  15
BRANCH  13  24
ATOM     24  C   UNL     1     -67.195 -42.493 -71.864  0.00  0.00    +0.000 C 
ATOM     25  O   UNL     1     -68.138 -43.263 -71.917  0.00  0.00    +0.000 OA
BRANCH  24  26
ATOM     26  C   UNL     1     -67.206 -41.239 -72.641  0.00  0.00    +0.000 C 
ATOM     27  C   UNL     1     -66.344 -40.085 -72.199  0.00  0.00    +0.000 C 
ATOM     28  C   UNL     1     -67.834 -39.982 -72.089  0.00  0.00    +0.000 C 
ENDBRANCH  24  26
ENDBRANCH  13  24
TORSDOF 5
ENDMDL
MODEL 15
REMARK VINA RESULT:    -5.200     12.028     14.591
REMARK INTER + INTRA:          -7.642
REMARK INTER:                  -6.653
REMARK INTRA:                  -0.988
REMARK UNBOUND:                -0.922
REMARK  Name = 
REMARK  6 active torsions:
REMARK  status: ('A' for Active; 'I' for Inactive)
REMARK    1  A    between atoms: C_1  and  C_2
REMARK    2  A    between atoms: C_4  and  C_5
REMARK    3  A    between atoms: C_5  and  S_6
REMARK    4  A    between atoms: S_6  and  C_8
REMARK    5  A    between atoms: C_20  and  C_21
REMARK    6  A    between atoms: C_21  and  C_23
REMARK                            x       y       z     vdW  Elec       q    Type
REMARK                         _______ _______ _______ _____ _____    ______ ____
ROOT
ATOM      1  C   UNL     1     -67.288 -40.452 -68.667  0.00  0.00    +0.000 A 
ATOM      2  N   UNL     1     -66.194 -40.168 -69.507  0.00  0.00    +0.000 N 
ATOM      3  C   UNL     1     -64.863 -40.406 -69.067  0.00  0.00    +0.000 A 
ATOM      4  C   UNL     1     -63.772 -40.521 -69.948  0.00  0.00    +0.000 A 
ATOM      5 BR   UNL     1     -64.030 -40.546 -71.827  0.00  0.00    +0.000 Br
ATOM      6  C   UNL     1     -62.461 -40.646 -69.467  0.00  0.00    +0.000 A 
ATOM      7  C   UNL     1     -62.231 -40.684 -68.087  0.00  0.00    +0.000 A 
ATOM      8  C   UNL     1     -63.297 -40.573 -67.194  0.00  0.00    +0.000 A 
ATOM      9 CL   UNL     1     -62.915 -40.704 -65.515  0.00  0.00    +0.000 Cl
ATOM     10  C   UNL     1     -64.600 -40.413 -67.688  0.00  0.00    +0.000 A 
ATOM     11  C   UNL     1     -65.777 -40.203 -66.822  0.00  0.00    +0.000 A 
ATOM     12  O   UNL     1     -65.689 -39.634 -65.741  0.00  0.00    +0.000 OA
ATOM     13  C   UNL     1     -67.116 -40.636 -67.339  0.00  0.00    +0.000 A 
ATOM     14  H   UNL     1     -66.366 -40.453 -70.480  0.00  0.00    +0.000 HD
ENDROOT
BRANCH   1  15
ATOM     15  S   UNL     1     -68.760 -40.968 -69.591  0.00  0.00    +0.000 S 
ATOM     16  O   UNL     1     -68.224 -41.880 -70.659  0.00  0.00    +0.000 OA
BRANCH  15  17
ATOM     17  C   UNL     1     -69.489 -39.526 -70.422  0.00  0.00    +0.000 C 
BRANCH  17  21
ATOM     18  C   UNL     1     -71.061 -35.990 -67.070  0.00  0.00    +0.000 C 
ATOM     19  C   UNL     1     -70.595 -36.848 -68.175  0.00  0.00    +0.000 A 
ATOM     20  C   UNL     1     -70.244 -38.172 -68.289  0.00  0.00    +0.000 A 
ATOM     21  C   UNL     1     -69.984 -38.353 -69.665  0.00  0.00    +0.000 A 
ATOM     22  N   UNL     1     -70.104 -37.188 -70.325  0.00  0.00    +0.000 NA
ATOM     23  O   UNL     1     -70.488 -36.251 -69.389  0.00  0.00    +0.000 OA
ENDBRANCH  17  21
ENDBRANCH  15  17
ENDBRANCH   1  15
BRANCH  13  24
ATOM     24  C   UNL     1     -67.947 -41.349 -66.327  0.00  0.00    +0.000 C 
ATOM     25  O   UNL     1     -67.733 -42.519 -66.063  0.00  0.00    +0.000 OA
BRANCH  24  26
ATOM     26  C   UNL     1     -69.001 -40.600 -65.617  0.00  0.00    +0.000 C 
ATOM     27  C   UNL     1     -69.791 -41.282 -64.530  0.00  0.00    +0.000 C 
ATOM     28  C   UNL     1     -70.462 -40.922 -65.820  0.00  0.00    +0.000 C 
ENDBRANCH  24  26
ENDBRANCH  13  24
TORSDOF 5
ENDMDL
MODEL 16
REMARK VINA RESULT:    -5.069     10.556     13.347
REMARK INTER + INTRA:          -7.472
REMARK INTER:                  -6.723
REMARK INTRA:                  -0.749
REMARK UNBOUND:                -0.922
REMARK  Name = 
REMARK  6 active torsions:
REMARK  status: ('A' for Active; 'I' for Inactive)
REMARK    1  A    between atoms: C_1  and  C_2
REMARK    2  A    between atoms: C_4  and  C_5
REMARK    3  A    between atoms: C_5  and  S_6
REMARK    4  A    between atoms: S_6  and  C_8
REMARK    5  A    between atoms: C_20  and  C_21
REMARK    6  A    between atoms: C_21  and  C_23
REMARK                            x       y       z     vdW  Elec       q    Type
REMARK                         _______ _______ _______ _____ _____    ______ ____
ROOT
ATOM      1  C   UNL     1     -65.963 -43.130 -69.395  0.00  0.00    +0.000 A 
ATOM      2  N   UNL     1     -66.425 -42.424 -68.268  0.00  0.00    +0.000 N 
ATOM      3  C   UNL     1     -65.556 -41.557 -67.550  0.00  0.00    +0.000 A 
ATOM      4  C   UNL     1     -66.020 -40.548 -66.686  0.00  0.00    +0.000 A 
ATOM      5 BR   UNL     1     -67.869 -40.147 -66.552  0.00  0.00    +0.000 Br
ATOM      6  C   UNL     1     -65.129 -39.788 -65.914  0.00  0.00    +0.000 A 
ATOM      7  C   UNL     1     -63.752 -40.016 -66.021  0.00  0.00    +0.000 A 
ATOM      8  C   UNL     1     -63.269 -41.010 -66.872  0.00  0.00    +0.000 A 
ATOM      9 CL   UNL     1     -61.553 -41.163 -66.986  0.00  0.00    +0.000 Cl
ATOM     10  C   UNL     1     -64.172 -41.787 -67.612  0.00  0.00    +0.000 A 
ATOM     11  C   UNL     1     -63.761 -42.915 -68.471  0.00  0.00    +0.000 A 
ATOM     12  O   UNL     1     -62.770 -43.589 -68.219  0.00  0.00    +0.000 OA
ATOM     13  C   UNL     1     -64.640 -43.272 -69.633  0.00  0.00    +0.000 A 
ATOM     14  H   UNL     1     -67.369 -42.040 -68.409  0.00  0.00    +0.000 HD
ENDROOT
BRANCH   1  15
ATOM     15  S   UNL     1     -67.260 -43.391 -70.634  0.00  0.00    +0.000 S 
ATOM     16  O   UNL     1     -67.614 -42.004 -71.095  0.00  0.00    +0.000 OA
BRANCH  15  17
ATOM     17  C   UNL     1     -68.733 -44.090 -69.832  0.00  0.00    +0.000 C 
BRANCH  17  21
ATOM     18  C   UNL     1     -71.075 -48.555 -70.724  0.00  0.00    +0.000 C 
ATOM     19  C   UNL     1     -70.458 -47.216 -70.665  0.00  0.00    +0.000 A 
ATOM     20  C   UNL     1     -69.836 -46.481 -69.685  0.00  0.00    +0.000 A 
ATOM     21  C   UNL     1     -69.397 -45.311 -70.343  0.00  0.00    +0.000 A 
ATOM     22  N   UNL     1     -69.796 -45.314 -71.627  0.00  0.00    +0.000 NA
ATOM     23  O   UNL     1     -70.458 -46.509 -71.823  0.00  0.00    +0.000 OA
ENDBRANCH  17  21
ENDBRANCH  15  17
ENDBRANCH   1  15
BRANCH  13  24
ATOM     24  C   UNL     1     -63.888 -43.551 -70.889  0.00  0.00    +0.000 C 
ATOM     25  O   UNL     1     -63.897 -44.666 -71.381  0.00  0.00    +0.000 OA
BRANCH  24  26
ATOM     26  C   UNL     1     -63.174 -42.443 -71.552  0.00  0.00    +0.000 C 
ATOM     27  C   UNL     1     -62.130 -42.753 -72.594  0.00  0.00    +0.000 C 
ATOM     28  C   UNL     1     -61.714 -42.176 -71.275  0.00  0.00    +0.000 C 
ENDBRANCH  24  26
ENDBRANCH  13  24
TORSDOF 5
ENDMDL
MODEL 17
REMARK VINA RESULT:    -5.011     21.128     24.821
REMARK INTER + INTRA:          -7.397
REMARK INTER:                  -6.548
REMARK INTRA:                  -0.849
REMARK UNBOUND:                -0.922
REMARK  Name = 
REMARK  6 active torsions:
REMARK  status: ('A' for Active; 'I' for Inactive)
REMARK    1  A    between atoms: C_1  and  C_2
REMARK    2  A    between atoms: C_4  and  C_5
REMARK    3  A    between atoms: C_5  and  S_6
REMARK    4  A    between atoms: S_6  and  C_8
REMARK    5  A    between atoms: C_20  and  C_21
REMARK    6  A    between atoms: C_21  and  C_23
REMARK                            x       y       z     vdW  Elec       q    Type
REMARK                         _______ _______ _______ _____ _____    ______ ____
ROOT
ATOM      1  C   UNL     1     -66.244 -47.841 -55.545  0.00  0.00    +0.000 A 
ATOM      2  N   UNL     1     -67.029 -48.958 -55.892  0.00  0.00    +0.000 N 
ATOM      3  C   UNL     1     -67.093 -50.091 -55.035  0.00  0.00    +0.000 A 
ATOM      4  C   UNL     1     -68.122 -51.049 -55.105  0.00  0.00    +0.000 A 
ATOM      5 BR   UNL     1     -69.617 -50.799 -56.245  0.00  0.00    +0.000 Br
ATOM      6  C   UNL     1     -68.089 -52.208 -54.317  0.00  0.00    +0.000 A 
ATOM      7  C   UNL     1     -67.030 -52.408 -53.423  0.00  0.00    +0.000 A 
ATOM      8  C   UNL     1     -65.999 -51.471 -53.336  0.00  0.00    +0.000 A 
ATOM      9 CL   UNL     1     -64.778 -51.774 -52.153  0.00  0.00    +0.000 Cl
ATOM     10  C   UNL     1     -66.026 -50.333 -54.156  0.00  0.00    +0.000 A 
ATOM     11  C   UNL     1     -64.941 -49.334 -54.194  0.00  0.00    +0.000 A 
ATOM     12  O   UNL     1     -63.775 -49.639 -53.976  0.00  0.00    +0.000 OA
ATOM     13  C   UNL     1     -65.291 -47.930 -54.591  0.00  0.00    +0.000 A 
ATOM     14  H   UNL     1     -67.939 -48.687 -56.289  0.00  0.00    +0.000 HD
ENDROOT
BRANCH   1  15
ATOM     15  S   UNL     1     -66.941 -46.284 -56.155  0.00  0.00    +0.000 S 
ATOM     16  O   UNL     1     -68.423 -46.536 -56.202  0.00  0.00    +0.000 OA
BRANCH  15  17
ATOM     17  C   UNL     1     -66.384 -45.997 -57.860  0.00  0.00    +0.000 C 
BRANCH  17  21
ATOM     18  C   UNL     1     -69.438 -45.152 -61.882  0.00  0.00    +0.000 C 
ATOM     19  C   UNL     1     -68.579 -45.602 -60.771  0.00  0.00    +0.000 A 
ATOM     20  C   UNL     1     -67.809 -44.967 -59.826  0.00  0.00    +0.000 A 
ATOM     21  C   UNL     1     -67.325 -46.008 -59.004  0.00  0.00    +0.000 A 
ATOM     22  N   UNL     1     -67.725 -47.204 -59.473  0.00  0.00    +0.000 NA
ATOM     23  O   UNL     1     -68.510 -46.943 -60.577  0.00  0.00    +0.000 OA
ENDBRANCH  17  21
ENDBRANCH  15  17
ENDBRANCH   1  15
BRANCH  13  24
ATOM     24  C   UNL     1     -64.650 -46.889 -53.738  0.00  0.00    +0.000 C 
ATOM     25  O   UNL     1     -63.861 -46.094 -54.219  0.00  0.00    +0.000 OA
BRANCH  24  26
ATOM     26  C   UNL     1     -65.023 -46.808 -52.313  0.00  0.00    +0.000 C 
ATOM     27  C   UNL     1     -64.227 -45.923 -51.388  0.00  0.00    +0.000 C 
ATOM     28  C   UNL     1     -64.150 -47.412 -51.239  0.00  0.00    +0.000 C 
ENDBRANCH  24  26
ENDBRANCH  13  24
TORSDOF 5
ENDMDL
MODEL 18
REMARK VINA RESULT:    -4.872      4.675      8.065
REMARK INTER + INTRA:          -7.218
REMARK INTER:                  -6.356
REMARK INTRA:                  -0.862
REMARK UNBOUND:                -0.922
REMARK  Name = 
REMARK  6 active torsions:
REMARK  status: ('A' for Active; 'I' for Inactive)
REMARK    1  A    between atoms: C_1  and  C_2
REMARK    2  A    between atoms: C_4  and  C_5
REMARK    3  A    between atoms: C_5  and  S_6
REMARK    4  A    between atoms: S_6  and  C_8
REMARK    5  A    between atoms: C_20  and  C_21
REMARK    6  A    between atoms: C_21  and  C_23
REMARK                            x       y       z     vdW  Elec       q    Type
REMARK                         _______ _______ _______ _____ _____    ______ ____
ROOT
ATOM      1  C   UNL     1     -55.800 -43.742 -78.475  0.00  0.00    +0.000 A 
ATOM      2  N   UNL     1     -56.529 -43.377 -79.624  0.00  0.00    +0.000 N 
ATOM      3  C   UNL     1     -57.939 -43.551 -79.671  0.00  0.00    +0.000 A 
ATOM      4  C   UNL     1     -58.766 -42.873 -80.586  0.00  0.00    +0.000 A 
ATOM      5 BR   UNL     1     -58.069 -41.523 -81.722  0.00  0.00    +0.000 Br
ATOM      6  C   UNL     1     -60.137 -43.156 -80.673  0.00  0.00    +0.000 A 
ATOM      7  C   UNL     1     -60.702 -44.109 -79.818  0.00  0.00    +0.000 A 
ATOM      8  C   UNL     1     -59.903 -44.792 -78.901  0.00  0.00    +0.000 A 
ATOM      9 CL   UNL     1     -60.708 -45.894 -77.843  0.00  0.00    +0.000 Cl
ATOM     10  C   UNL     1     -58.526 -44.526 -78.849  0.00  0.00    +0.000 A 
ATOM     11  C   UNL     1     -57.590 -45.257 -77.974  0.00  0.00    +0.000 A 
ATOM     12  O   UNL     1     -57.781 -46.425 -77.659  0.00  0.00    +0.000 OA
ATOM     13  C   UNL     1     -56.339 -44.553 -77.538  0.00  0.00    +0.000 A 
ATOM     14  H   UNL     1     -56.208 -42.483 -80.021  0.00  0.00    +0.000 HD
ENDROOT
BRANCH   1  15
ATOM     15  S   UNL     1     -54.349 -42.690 -78.208  0.00  0.00    +0.000 S 
ATOM     16  O   UNL     1     -54.648 -41.969 -76.921  0.00  0.00    +0.000 OA
BRANCH  15  17
ATOM     17  C   UNL     1     -54.256 -41.439 -79.523  0.00  0.00    +0.000 C 
BRANCH  17  21
ATOM     18  C   UNL     1     -51.962 -41.534 -84.099  0.00  0.00    +0.000 C 
ATOM     19  C   UNL     1     -52.444 -41.595 -82.707  0.00  0.00    +0.000 A 
ATOM     20  C   UNL     1     -53.568 -41.150 -82.052  0.00  0.00    +0.000 A 
ATOM     21  C   UNL     1     -53.427 -41.638 -80.734  0.00  0.00    +0.000 A 
ATOM     22  N   UNL     1     -52.253 -42.277 -80.590  0.00  0.00    +0.000 NA
ATOM     23  O   UNL     1     -51.643 -42.249 -81.827  0.00  0.00    +0.000 OA
ENDBRANCH  17  21
ENDBRANCH  15  17
ENDBRANCH   1  15
BRANCH  13  24
ATOM     24  C   UNL     1     -56.016 -44.743 -76.096  0.00  0.00    +0.000 C 
ATOM     25  O   UNL     1     -56.684 -44.198 -75.234  0.00  0.00    +0.000 OA
BRANCH  24  26
ATOM     26  C   UNL     1     -54.905 -45.641 -75.728  0.00  0.00    +0.000 C 
ATOM     27  C   UNL     1     -54.422 -46.668 -76.719  0.00  0.00    +0.000 C 
ATOM     28  C   UNL     1     -55.137 -47.113 -75.480  0.00  0.00    +0.000 C 
ENDBRANCH  24  26
ENDBRANCH  13  24
TORSDOF 5
ENDMDL
MODEL 19
REMARK VINA RESULT:    -4.826      8.641      9.892
REMARK INTER + INTRA:          -7.159
REMARK INTER:                  -6.578
REMARK INTRA:                  -0.581
REMARK UNBOUND:                -0.922
REMARK  Name = 
REMARK  6 active torsions:
REMARK  status: ('A' for Active; 'I' for Inactive)
REMARK    1  A    between atoms: C_1  and  C_2
REMARK    2  A    between atoms: C_4  and  C_5
REMARK    3  A    between atoms: C_5  and  S_6
REMARK    4  A    between atoms: S_6  and  C_8
REMARK    5  A    between atoms: C_20  and  C_21
REMARK    6  A    between atoms: C_21  and  C_23
REMARK                            x       y       z     vdW  Elec       q    Type
REMARK                         _______ _______ _______ _____ _____    ______ ____
ROOT
ATOM      1  C   UNL     1     -51.409 -45.140 -84.192  0.00  0.00    +0.000 A 
ATOM      2  N   UNL     1     -50.872 -46.305 -84.772  0.00  0.00    +0.000 N 
ATOM      3  C   UNL     1     -49.552 -46.307 -85.301  0.00  0.00    +0.000 A 
ATOM      4  C   UNL     1     -48.818 -47.487 -85.530  0.00  0.00    +0.000 A 
ATOM      5 BR   UNL     1     -49.480 -49.175 -84.975  0.00  0.00    +0.000 Br
ATOM      6  C   UNL     1     -47.563 -47.450 -86.155  0.00  0.00    +0.000 A 
ATOM      7  C   UNL     1     -47.014 -46.220 -86.534  0.00  0.00    +0.000 A 
ATOM      8  C   UNL     1     -47.722 -45.038 -86.315  0.00  0.00    +0.000 A 
ATOM      9 CL   UNL     1     -46.927 -43.569 -86.753  0.00  0.00    +0.000 Cl
ATOM     10  C   UNL     1     -48.992 -45.091 -85.722  0.00  0.00    +0.000 A 
ATOM     11  C   UNL     1     -49.849 -43.905 -85.529  0.00  0.00    +0.000 A 
ATOM     12  O   UNL     1     -49.806 -42.948 -86.291  0.00  0.00    +0.000 OA
ATOM     13  C   UNL     1     -50.845 -43.932 -84.407  0.00  0.00    +0.000 A 
ATOM     14  H   UNL     1     -51.103 -47.151 -84.234  0.00  0.00    +0.000 HD
ENDROOT
BRANCH   1  15
ATOM     15  S   UNL     1     -52.571 -45.503 -82.849  0.00  0.00    +0.000 S 
ATOM     16  O   UNL     1     -53.143 -46.847 -83.209  0.00  0.00    +0.000 OA
BRANCH  15  17
ATOM     17  C   UNL     1     -53.935 -44.304 -82.886  0.00  0.00    +0.000 C 
BRANCH  17  21
ATOM     18  C   UNL     1     -54.075 -41.245 -78.782  0.00  0.00    +0.000 C 
ATOM     19  C   UNL     1     -54.235 -42.064 -79.998  0.00  0.00    +0.000 A 
ATOM     20  C   UNL     1     -53.399 -42.856 -80.748  0.00  0.00    +0.000 A 
ATOM     21  C   UNL     1     -54.236 -43.426 -81.732  0.00  0.00    +0.000 A 
ATOM     22  N   UNL     1     -55.488 -42.946 -81.621  0.00  0.00    +0.000 NA
ATOM     23  O   UNL     1     -55.482 -42.097 -80.534  0.00  0.00    +0.000 OA
ENDBRANCH  17  21
ENDBRANCH  15  17
ENDBRANCH   1  15
BRANCH  13  24
ATOM     24  C   UNL     1     -50.901 -42.663 -83.626  0.00  0.00    +0.000 C 
ATOM     25  O   UNL     1     -50.424 -42.604 -82.506  0.00  0.00    +0.000 OA
BRANCH  24  26
ATOM     26  C   UNL     1     -51.502 -41.470 -84.250  0.00  0.00    +0.000 C 
ATOM     27  C   UNL     1     -52.688 -40.809 -83.596  0.00  0.00    +0.000 C 
ATOM     28  C   UNL     1     -52.865 -41.528 -84.898  0.00  0.00    +0.000 C 
ENDBRANCH  24  26
ENDBRANCH  13  24
TORSDOF 5
ENDMDL
MODEL 20
REMARK VINA RESULT:    -4.807     10.799     13.505
REMARK INTER + INTRA:          -7.133
REMARK INTER:                  -6.128
REMARK INTRA:                  -1.006
REMARK UNBOUND:                -0.922
REMARK  Name = 
REMARK  6 active torsions:
REMARK  status: ('A' for Active; 'I' for Inactive)
REMARK    1  A    between atoms: C_1  and  C_2
REMARK    2  A    between atoms: C_4  and  C_5
REMARK    3  A    between atoms: C_5  and  S_6
REMARK    4  A    between atoms: S_6  and  C_8
REMARK    5  A    between atoms: C_20  and  C_21
REMARK    6  A    between atoms: C_21  and  C_23
REMARK                            x       y       z     vdW  Elec       q    Type
REMARK                         _______ _______ _______ _____ _____    ______ ____
ROOT
ATOM      1  C   UNL     1     -66.809 -40.743 -68.736  0.00  0.00    +0.000 A 
ATOM      2  N   UNL     1     -65.538 -40.618 -69.329  0.00  0.00    +0.000 N 
ATOM      3  C   UNL     1     -64.358 -40.774 -68.550  0.00  0.00    +0.000 A 
ATOM      4  C   UNL     1     -63.098 -41.049 -69.113  0.00  0.00    +0.000 A 
ATOM      5 BR   UNL     1     -62.911 -41.414 -70.965  0.00  0.00    +0.000 Br
ATOM      6  C   UNL     1     -61.942 -41.087 -68.320  0.00  0.00    +0.000 A 
ATOM      7  C   UNL     1     -62.042 -40.874 -66.940  0.00  0.00    +0.000 A 
ATOM      8  C   UNL     1     -63.281 -40.602 -66.360  0.00  0.00    +0.000 A 
ATOM      9 CL   UNL     1     -63.308 -40.427 -64.642  0.00  0.00    +0.000 Cl
ATOM     10  C   UNL     1     -64.425 -40.532 -67.169  0.00  0.00    +0.000 A 
ATOM     11  C   UNL     1     -65.760 -40.166 -66.659  0.00  0.00    +0.000 A 
ATOM     12  O   UNL     1     -65.902 -39.411 -65.705  0.00  0.00    +0.000 OA
ATOM     13  C   UNL     1     -66.960 -40.684 -67.395  0.00  0.00    +0.000 A 
ATOM     14  H   UNL     1     -65.490 -41.075 -70.249  0.00  0.00    +0.000 HD
ENDROOT
BRANCH   1  15
ATOM     15  S   UNL     1     -68.046 -41.416 -69.878  0.00  0.00    +0.000 S 
ATOM     16  O   UNL     1     -67.924 -42.907 -69.718  0.00  0.00    +0.000 OA
BRANCH  15  17
ATOM     17  C   UNL     1     -67.577 -41.012 -71.586  0.00  0.00    +0.000 C 
BRANCH  17  21
ATOM     18  C   UNL     1     -65.354 -44.739 -74.304  0.00  0.00    +0.000 C 
ATOM     19  C   UNL     1     -66.166 -43.700 -73.643  0.00  0.00    +0.000 A 
ATOM     20  C   UNL     1     -65.981 -42.871 -72.562  0.00  0.00    +0.000 A 
ATOM     21  C   UNL     1     -67.132 -42.051 -72.542  0.00  0.00    +0.000 A 
ATOM     22  N   UNL     1     -67.988 -42.417 -73.513  0.00  0.00    +0.000 NA
ATOM     23  O   UNL     1     -67.378 -43.447 -74.198  0.00  0.00    +0.000 OA
ENDBRANCH  17  21
ENDBRANCH  15  17
ENDBRANCH   1  15
BRANCH  13  24
ATOM     24  C   UNL     1     -68.035 -41.200 -66.500  0.00  0.00    +0.000 C 
ATOM     25  O   UNL     1     -67.850 -42.193 -65.818  0.00  0.00    +0.000 OA
BRANCH  24  26
ATOM     26  C   UNL     1     -69.309 -40.460 -66.419  0.00  0.00    +0.000 C 
ATOM     27  C   UNL     1     -69.367 -39.031 -66.892  0.00  0.00    +0.000 C 
ATOM     28  C   UNL     1     -69.498 -39.334 -65.430  0.00  0.00    +0.000 C 
ENDBRANCH  24  26
ENDBRANCH  13  24
TORSDOF 5
ENDMDL
