REMARK VINA RESULT:    -6.084     15.278     17.736
REMARK INTER + INTRA:          -9.018
REMARK INTER:                  -8.151
REMARK INTRA:                  -0.867
REMARK UNBOUND:                -1.155
REMARK  Name = 
REMARK  6 active torsions:
REMARK  status: ('A' for Active; 'I' for Inactive)
REMARK    1  A    between atoms: C_1  and  C_2
REMARK    2  A    between atoms: C_4  and  C_5
REMARK    3  A    between atoms: C_5  and  S_6
REMARK    4  A    between atoms: S_6  and  C_8
REMARK    5  A    between atoms: C_20  and  C_21
REMARK    6  A    between atoms: C_21  and  C_23
REMARK                            x       y       z     vdW  Elec       q    Type
REMARK                         _______ _______ _______ _____ _____    ______ ____
ROOT
ATOM      1  C   UNL     1     -57.041 -41.371 -78.687  0.00  0.00    +0.000 A 
ATOM      2  N   UNL     1     -56.393 -41.650 -79.906  0.00  0.00    +0.000 N 
ATOM      3  C   UNL     1     -54.996 -41.914 -79.939  0.00  0.00    +0.000 A 
ATOM      4  C   UNL     1     -54.363 -42.567 -81.012  0.00  0.00    +0.000 A 
ATOM      5 BR   UNL     1     -55.370 -43.314 -82.435  0.00  0.00    +0.000 Br
ATOM      6  C   UNL     1     -52.969 -42.709 -81.054  0.00  0.00    +0.000 A 
ATOM      7  C   UNL     1     -52.191 -42.219 -79.999  0.00  0.00    +0.000 A 
ATOM      8  C   UNL     1     -52.796 -41.569 -78.924  0.00  0.00    +0.000 A 
ATOM      9 CL   UNL     1     -51.756 -41.065 -77.640  0.00  0.00    +0.000 Cl
ATOM     10  C   UNL     1     -54.189 -41.401 -78.911  0.00  0.00    +0.000 A 
ATOM     11  C   UNL     1     -54.908 -40.654 -77.860  0.00  0.00    +0.000 A 
ATOM     12  O   UNL     1     -54.389 -39.718 -77.265  0.00  0.00    +0.000 OA
ATOM     13  C   UNL     1     -56.336 -41.022 -77.588  0.00  0.00    +0.000 A 
ATOM     14  H   UNL     1     -56.947 -42.275 -80.508  0.00  0.00    +0.000 HD
ENDROOT
BRANCH   1  15
ATOM     15  S   UNL     1     -58.757 -41.955 -78.662  0.00  0.00    +0.000 S 
ATOM     16  O   UNL     1     -58.642 -43.445 -78.841  0.00  0.00    +0.000 OA
BRANCH  15  17
ATOM     17  C   UNL     1     -59.642 -41.301 -80.107  0.00  0.00    +0.000 C 
BRANCH  17  21
ATOM     18  C   UNL     1     -61.958 -36.855 -79.060  0.00  0.00    +0.000 C 
ATOM     19  C   UNL     1     -61.299 -38.074 -79.566  0.00  0.00    +0.000 A 
ATOM     20  C   UNL     1     -60.718 -39.173 -78.979  0.00  0.00    +0.000 A 
ATOM     21  C   UNL     1     -60.368 -40.011 -80.061  0.00  0.00    +0.000 A 
ATOM     22  N   UNL     1     -60.660 -39.415 -81.231  0.00  0.00    +0.000 NA
ATOM     23  O   UNL     1     -61.243 -38.206 -80.915  0.00  0.00    +0.000 OA
ENDBRANCH  17  21
ENDBRANCH  15  17
ENDBRANCH   1  15
BRANCH  13  24
ATOM     24  C   UNL     1     -56.669 -41.102 -76.138  0.00  0.00    +0.000 C 
ATOM     25  O   UNL     1     -57.412 -40.282 -75.626  0.00  0.00    +0.000 OA
BRANCH  24  26
ATOM     26  C   UNL     1     -56.122 -42.218 -75.343  0.00  0.00    +0.000 C 
ATOM     27  C   UNL     1     -56.271 -43.630 -75.847  0.00  0.00    +0.000 C 
ATOM     28  C   UNL     1     -57.031 -43.192 -74.632  0.00  0.00    +0.000 C 
ENDBRANCH  24  26
ENDBRANCH  13  24
TORSDOF 5
