REMARK VINA RESULT:    -5.494     12.614     14.349
REMARK INTER + INTRA:          -8.042
REMARK INTER:                  -7.141
REMARK INTRA:                  -0.901
REMARK UNBOUND:                -0.943
REMARK  Name = 
REMARK  6 active torsions:
REMARK  status: ('A' for Active; 'I' for Inactive)
REMARK    1  A    between atoms: C_1  and  C_2
REMARK    2  A    between atoms: C_4  and  C_5
REMARK    3  A    between atoms: C_5  and  S_6
REMARK    4  A    between atoms: S_6  and  C_8
REMARK    5  A    between atoms: C_20  and  C_21
REMARK    6  A    between atoms: C_21  and  C_23
REMARK                            x       y       z     vdW  Elec       q    Type
REMARK                         _______ _______ _______ _____ _____    ______ ____
ROOT
ATOM      1  C   UNL     1     -58.291 -39.696 -62.588  0.00  0.00    +0.000 A 
ATOM      2  N   UNL     1     -57.688 -38.465 -62.263  0.00  0.00    +0.000 N 
ATOM      3  C   UNL     1     -56.497 -38.048 -62.919  0.00  0.00    +0.000 A 
ATOM      4  C   UNL     1     -56.063 -36.709 -62.944  0.00  0.00    +0.000 A 
ATOM      5 BR   UNL     1     -57.144 -35.316 -62.245  0.00  0.00    +0.000 Br
ATOM      6  C   UNL     1     -54.828 -36.358 -63.506  0.00  0.00    +0.000 A 
ATOM      7  C   UNL     1     -54.021 -37.348 -64.079  0.00  0.00    +0.000 A 
ATOM      8  C   UNL     1     -54.432 -38.681 -64.068  0.00  0.00    +0.000 A 
ATOM      9 CL   UNL     1     -53.400 -39.815 -64.863  0.00  0.00    +0.000 Cl
ATOM     10  C   UNL     1     -55.654 -39.025 -63.470  0.00  0.00    +0.000 A 
ATOM     11  C   UNL     1     -56.130 -40.415 -63.335  0.00  0.00    +0.000 A 
ATOM     12  O   UNL     1     -55.353 -41.355 -63.219  0.00  0.00    +0.000 OA
ATOM     13  C   UNL     1     -57.610 -40.648 -63.262  0.00  0.00    +0.000 A 
ATOM     14  H   UNL     1     -58.380 -37.712 -62.142  0.00  0.00    +0.000 HD
ENDROOT
BRANCH   1  15
ATOM     15  S   UNL     1     -60.095 -39.654 -62.417  0.00  0.00    +0.000 S 
ATOM     16  O   UNL     1     -60.409 -38.204 -62.168  0.00  0.00    +0.000 OA
BRANCH  15  17
ATOM     17  C   UNL     1     -60.586 -40.579 -60.932  0.00  0.00    +0.000 C 
BRANCH  17  21
ATOM     18  C   UNL     1     -65.471 -42.111 -60.933  0.00  0.00    +0.000 C 
ATOM     19  C   UNL     1     -64.016 -41.875 -60.902  0.00  0.00    +0.000 A 
ATOM     20  C   UNL     1     -63.209 -40.781 -61.109  0.00  0.00    +0.000 A 
ATOM     21  C   UNL     1     -61.905 -41.243 -60.824  0.00  0.00    +0.000 A 
ATOM     22  N   UNL     1     -61.923 -42.555 -60.531  0.00  0.00    +0.000 NA
ATOM     23  O   UNL     1     -63.245 -42.945 -60.580  0.00  0.00    +0.000 OA
ENDBRANCH  17  21
ENDBRANCH  15  17
ENDBRANCH   1  15
BRANCH  13  24
ATOM     24  C   UNL     1     -58.078 -41.793 -64.093  0.00  0.00    +0.000 C 
ATOM     25  O   UNL     1     -58.046 -41.730 -65.310  0.00  0.00    +0.000 OA
BRANCH  24  26
ATOM     26  C   UNL     1     -58.535 -43.022 -63.418  0.00  0.00    +0.000 C 
ATOM     27  C   UNL     1     -58.203 -43.236 -61.963  0.00  0.00    +0.000 C 
ATOM     28  C   UNL     1     -57.559 -44.098 -63.005  0.00  0.00    +0.000 C 
ENDBRANCH  24  26
ENDBRANCH  13  24
TORSDOF 5
