REMARK VINA RESULT:    -5.784     14.800     15.947
REMARK INTER + INTRA:          -8.066
REMARK INTER:                  -7.396
REMARK INTRA:                  -0.670
REMARK UNBOUND:                -0.930
REMARK  Name = 
REMARK  6 active torsions:
REMARK  status: ('A' for Active; 'I' for Inactive)
REMARK    1  A    between atoms: C_1  and  C_2
REMARK    2  A    between atoms: C_2  and  C_4
REMARK    3  A    between atoms: C_5  and  S_6
REMARK    4  A    between atoms: S_6  and  C_8
REMARK    5  A    between atoms: C_8  and  C_9
REMARK    6  A    between atoms: C_11  and  C_12
REMARK                            x       y       z     vdW  Elec       q    Type
REMARK                         _______ _______ _______ _____ _____    ______ ____
ROOT
ATOM      1  C   UNL     1     -53.735 -41.162 -78.394  0.00  0.00    +0.000 A 
ATOM      2  C   UNL     1     -55.087 -41.121 -78.433  0.00  0.00    +0.000 A 
ATOM      3  N   UNL     1     -55.830 -41.484 -79.544  0.00  0.00    +0.000 N 
ATOM      4  C   UNL     1     -55.229 -41.625 -80.809  0.00  0.00    +0.000 A 
ATOM      5  C   UNL     1     -56.006 -41.729 -81.974  0.00  0.00    +0.000 A 
ATOM      6 BR   UNL     1     -57.901 -41.632 -81.896  0.00  0.00    +0.000 Br
ATOM      7  C   UNL     1     -55.404 -41.890 -83.220  0.00  0.00    +0.000 A 
ATOM      8  C   UNL     1     -54.013 -41.952 -83.311  0.00  0.00    +0.000 A 
ATOM      9  C   UNL     1     -53.219 -41.885 -82.156  0.00  0.00    +0.000 A 
ATOM     10 CL   UNL     1     -51.513 -41.904 -82.401  0.00  0.00    +0.000 Cl
ATOM     11  C   UNL     1     -53.833 -41.752 -80.901  0.00  0.00    +0.000 A 
ATOM     12  C   UNL     1     -53.086 -41.751 -79.613  0.00  0.00    +0.000 A 
ATOM     13  O   UNL     1     -51.973 -42.259 -79.530  0.00  0.00    +0.000 OA
ATOM     14  H   UNL     1     -56.762 -41.060 -79.575  0.00  0.00    +0.000 HD
ENDROOT
BRANCH   1  16
ATOM     15  C   UNL     1     -52.449 -41.682 -76.192  0.00  0.00    +0.000 C 
ATOM     16  C   UNL     1     -52.882 -40.692 -77.256  0.00  0.00    +0.000 C 
ATOM     17  O   UNL     1     -52.522 -39.518 -77.176  0.00  0.00    +0.000 OA
ENDBRANCH   1  16
BRANCH   2  18
ATOM     18  S   UNL     1     -56.066 -40.426 -77.060  0.00  0.00    +0.000 S 
ATOM     19  O   UNL     1     -57.408 -40.167 -77.692  0.00  0.00    +0.000 OA
BRANCH  18  20
ATOM     20  C   UNL     1     -56.247 -41.969 -76.088  0.00  0.00    +0.000 C 
BRANCH  20  21
ATOM     21  C   UNL     1     -56.574 -41.757 -74.647  0.00  0.00    +0.000 A 
ATOM     22  C   UNL     1     -56.026 -42.337 -73.473  0.00  0.00    +0.000 A 
ATOM     23  C   UNL     1     -56.653 -41.691 -72.436  0.00  0.00    +0.000 A 
ATOM     24  C   UNL     1     -56.587 -41.768 -70.965  0.00  0.00    +0.000 C 
ATOM     25  O   UNL     1     -57.514 -40.771 -72.946  0.00  0.00    +0.000 OA
ATOM     26  N   UNL     1     -57.463 -40.803 -74.324  0.00  0.00    +0.000 NA
ENDBRANCH  20  21
ENDBRANCH  18  20
ENDBRANCH   2  18
TORSDOF 4
