REMARK VINA RESULT:    -5.664     11.726     13.862
REMARK INTER + INTRA:          -8.113
REMARK INTER:                  -7.020
REMARK INTRA:                  -1.092
REMARK UNBOUND:                -0.794
REMARK  Name = 
REMARK  8 active torsions:
REMARK  status: ('A' for Active; 'I' for Inactive)
REMARK    1  A    between atoms: C_1  and  C_2
REMARK    2  A    between atoms: C_4  and  C_5
REMARK    3  A    between atoms: C_5  and  S_6
REMARK    4  A    between atoms: S_6  and  C_8
REMARK    5  A    between atoms: C_20  and  C_21
REMARK    6  A    between atoms: C_21  and  C_23
REMARK    7  A    between atoms: C_23  and  C_24
REMARK    8  A    between atoms: C_23  and  C_25
REMARK                            x       y       z     vdW  Elec       q    Type
REMARK                         _______ _______ _______ _____ _____    ______ ____
ROOT
ATOM      1  C   UNL     1     -57.091 -40.849 -62.408  0.00  0.00    +0.000 A 
ATOM      2  N   UNL     1     -57.442 -39.679 -61.742  0.00  0.00    +0.000 N 
ATOM      3  C   UNL     1     -57.122 -38.409 -62.260  0.00  0.00    +0.000 A 
ATOM      4  C   UNL     1     -57.799 -37.243 -61.857  0.00  0.00    +0.000 A 
ATOM      5 BR   UNL     1     -59.303 -37.337 -60.705  0.00  0.00    +0.000 Br
ATOM      6  C   UNL     1     -57.409 -35.986 -62.328  0.00  0.00    +0.000 A 
ATOM      7  C   UNL     1     -56.340 -35.877 -63.213  0.00  0.00    +0.000 A 
ATOM      8  C   UNL     1     -55.654 -37.031 -63.634  0.00  0.00    +0.000 A 
ATOM      9 CL   UNL     1     -54.394 -36.778 -64.786  0.00  0.00    +0.000 Cl
ATOM     10  C   UNL     1     -56.043 -38.299 -63.153  0.00  0.00    +0.000 A 
ATOM     11  C   UNL     1     -55.365 -39.571 -63.511  0.00  0.00    +0.000 A 
ATOM     12  O   UNL     1     -54.197 -39.561 -63.886  0.00  0.00    +0.000 OA
ATOM     13  C   UNL     1     -56.146 -40.876 -63.378  0.00  0.00    +0.000 A 
ATOM     14  H   UNL     1     -58.329 -39.745 -61.223  0.00  0.00    +0.000 HD
ENDROOT
BRANCH   1  15
ATOM     15  S   UNL     1     -58.202 -42.237 -61.960  0.00  0.00    +0.000 S 
ATOM     16  O   UNL     1     -58.969 -42.506 -63.226  0.00  0.00    +0.000 OA
BRANCH  15  17
ATOM     17  C   UNL     1     -59.337 -41.488 -60.743  0.00  0.00    +0.000 C 
BRANCH  17  21
ATOM     18  C   UNL     1     -63.821 -39.977 -62.844  0.00  0.00    +0.000 C 
ATOM     19  C   UNL     1     -62.645 -40.573 -62.172  0.00  0.00    +0.000 A 
ATOM     20  C   UNL     1     -61.299 -40.287 -62.129  0.00  0.00    +0.000 A 
ATOM     21  C   UNL     1     -60.741 -41.261 -61.251  0.00  0.00    +0.000 A 
ATOM     22  N   UNL     1     -61.707 -42.090 -60.819  0.00  0.00    +0.000 NA
ATOM     23  O   UNL     1     -62.888 -41.656 -61.391  0.00  0.00    +0.000 OA
ENDBRANCH  17  21
ENDBRANCH  15  17
ENDBRANCH   1  15
BRANCH  13  24
ATOM     24  C   UNL     1     -55.794 -41.980 -64.350  0.00  0.00    +0.000 C 
ATOM     25  O   UNL     1     -54.999 -42.860 -64.024  0.00  0.00    +0.000 OA
BRANCH  24  26
ATOM     26  C   UNL     1     -56.372 -41.976 -65.766  0.00  0.00    +0.000 C 
ATOM     27  C   UNL     1     -57.149 -43.255 -66.064  0.00  0.00    +0.000 C 
ATOM     28  C   UNL     1     -57.250 -40.748 -66.022  0.00  0.00    +0.000 C 
ENDBRANCH  24  26
ENDBRANCH  13  24
TORSDOF 5
