REMARK VINA RESULT:    -4.887      5.440      7.984
REMARK INTER + INTRA:          -7.112
REMARK INTER:                  -6.334
REMARK INTRA:                  -0.778
REMARK UNBOUND:                -1.082
REMARK  Name = 
REMARK  6 active torsions:
REMARK  status: ('A' for Active; 'I' for Inactive)
REMARK    1  A    between atoms: C_1  and  C_2
REMARK    2  A    between atoms: C_2  and  C_4
REMARK    3  A    between atoms: C_5  and  S_6
REMARK    4  A    between atoms: S_6  and  C_8
REMARK    5  A    between atoms: C_8  and  C_9
REMARK    6  A    between atoms: C_11  and  C_12
REMARK                            x       y       z     vdW  Elec       q    Type
REMARK                         _______ _______ _______ _____ _____    ______ ____
ROOT
ATOM      1  C   UNL     1     -57.406 -37.367 -62.356  0.00  0.00    +0.000 A 
ATOM      2  C   UNL     1     -57.781 -38.665 -62.359  0.00  0.00    +0.000 A 
ATOM      3  N   UNL     1     -59.086 -39.082 -62.183  0.00  0.00    +0.000 N 
ATOM      4  C   UNL     1     -60.124 -38.204 -61.834  0.00  0.00    +0.000 A 
ATOM      5  C   UNL     1     -61.430 -38.683 -61.620  0.00  0.00    +0.000 A 
ATOM      6 BR   UNL     1     -61.815 -40.543 -61.706  0.00  0.00    +0.000 Br
ATOM      7  C   UNL     1     -62.476 -37.812 -61.328  0.00  0.00    +0.000 A 
ATOM      8  C   UNL     1     -62.231 -36.444 -61.259  0.00  0.00    +0.000 A 
ATOM      9  C   UNL     1     -60.945 -35.939 -61.491  0.00  0.00    +0.000 A 
ATOM     10 CL   UNL     1     -60.796 -34.221 -61.360  0.00  0.00    +0.000 Cl
ATOM     11  C   UNL     1     -59.887 -36.819 -61.799  0.00  0.00    +0.000 A 
ATOM     12  C   UNL     1     -58.493 -36.363 -62.062  0.00  0.00    +0.000 A 
ATOM     13  O   UNL     1     -58.217 -35.173 -61.996  0.00  0.00    +0.000 OA
ATOM     14  H   UNL     1     -59.197 -40.042 -61.849  0.00  0.00    +0.000 HD
ENDROOT
BRANCH   1  16
ATOM     15  C   UNL     1     -55.541 -36.554 -63.984  0.00  0.00    +0.000 C 
ATOM     16  C   UNL     1     -55.997 -36.880 -62.581  0.00  0.00    +0.000 C 
ATOM     17  O   UNL     1     -55.201 -36.753 -61.648  0.00  0.00    +0.000 OA
ENDBRANCH   1  16
BRANCH   2  18
ATOM     18  S   UNL     1     -56.549 -40.007 -62.433  0.00  0.00    +0.000 S 
ATOM     19  O   UNL     1     -56.265 -40.301 -60.984  0.00  0.00    +0.000 OA
BRANCH  18  20
ATOM     20  C   UNL     1     -57.624 -41.367 -63.020  0.00  0.00    +0.000 C 
BRANCH  20  21
ATOM     21  C   UNL     1     -57.388 -41.697 -64.457  0.00  0.00    +0.000 A 
ATOM     22  C   UNL     1     -57.685 -42.880 -65.185  0.00  0.00    +0.000 A 
ATOM     23  C   UNL     1     -57.248 -42.621 -66.461  0.00  0.00    +0.000 A 
ATOM     24  C   UNL     1     -57.182 -43.403 -67.709  0.00  0.00    +0.000 C 
ATOM     25  O   UNL     1     -56.768 -41.351 -66.516  0.00  0.00    +0.000 OA
ATOM     26  N   UNL     1     -56.860 -40.766 -65.267  0.00  0.00    +0.000 NA
ENDBRANCH  20  21
ENDBRANCH  18  20
ENDBRANCH   2  18
TORSDOF 4
