REMARK VINA RESULT:    -5.756      4.346      6.597
REMARK INTER + INTRA:          -8.143
REMARK INTER:                  -7.848
REMARK INTRA:                  -0.295
REMARK UNBOUND:                -1.042
REMARK  Name = 
REMARK  6 active torsions:
REMARK  status: ('A' for Active; 'I' for Inactive)
REMARK    1  A    between atoms: C_1  and  C_2
REMARK    2  A    between atoms: C_2  and  C_4
REMARK    3  A    between atoms: C_5  and  S_6
REMARK    4  A    between atoms: S_6  and  C_8
REMARK    5  A    between atoms: C_8  and  C_9
REMARK    6  A    between atoms: C_11  and  C_12
REMARK                            x       y       z     vdW  Elec       q    Type
REMARK                         _______ _______ _______ _____ _____    ______ ____
ROOT
ATOM      1  C   UNL     1     -55.327 -41.681 -79.594  0.00  0.00    +0.000 A 
ATOM      2  C   UNL     1     -53.995 -41.695 -79.823  0.00  0.00    +0.000 A 
ATOM      3  N   UNL     1     -53.438 -41.528 -81.076  0.00  0.00    +0.000 N 
ATOM      4  C   UNL     1     -54.206 -41.430 -82.245  0.00  0.00    +0.000 A 
ATOM      5  C   UNL     1     -53.589 -41.249 -83.499  0.00  0.00    +0.000 A 
ATOM      6 BR   UNL     1     -51.694 -41.210 -83.656  0.00  0.00    +0.000 Br
ATOM      7  C   UNL     1     -54.344 -41.092 -84.656  0.00  0.00    +0.000 A 
ATOM      8  C   UNL     1     -55.734 -41.104 -84.577  0.00  0.00    +0.000 A 
ATOM      9  C   UNL     1     -56.373 -41.263 -83.340  0.00  0.00    +0.000 A 
ATOM     10 CL   UNL     1     -58.101 -41.271 -83.404  0.00  0.00    +0.000 Cl
ATOM     11  C   UNL     1     -55.607 -41.405 -82.164  0.00  0.00    +0.000 A 
ATOM     12  C   UNL     1     -56.208 -41.566 -80.810  0.00  0.00    +0.000 A 
ATOM     13  O   UNL     1     -57.424 -41.643 -80.687  0.00  0.00    +0.000 OA
ATOM     14  H   UNL     1     -52.487 -41.879 -81.193  0.00  0.00    +0.000 HD
ENDROOT
BRANCH   1  16
ATOM     15  C   UNL     1     -56.455 -40.555 -77.538  0.00  0.00    +0.000 C 
ATOM     16  C   UNL     1     -55.963 -41.805 -78.233  0.00  0.00    +0.000 C 
ATOM     17  O   UNL     1     -56.071 -42.889 -77.664  0.00  0.00    +0.000 OA
ENDBRANCH   1  16
BRANCH   2  18
ATOM     18  S   UNL     1     -52.809 -42.085 -78.495  0.00  0.00    +0.000 S 
ATOM     19  O   UNL     1     -51.473 -42.046 -79.192  0.00  0.00    +0.000 OA
BRANCH  18  20
ATOM     20  C   UNL     1     -52.922 -40.534 -77.535  0.00  0.00    +0.000 C 
BRANCH  20  21
ATOM     21  C   UNL     1     -51.731 -40.306 -76.664  0.00  0.00    +0.000 A 
ATOM     22  C   UNL     1     -51.111 -39.095 -76.260  0.00  0.00    +0.000 A 
ATOM     23  C   UNL     1     -50.086 -39.486 -75.436  0.00  0.00    +0.000 A 
ATOM     24  C   UNL     1     -49.024 -38.777 -74.697  0.00  0.00    +0.000 C 
ATOM     25  O   UNL     1     -50.105 -40.840 -75.318  0.00  0.00    +0.000 OA
ATOM     26  N   UNL     1     -51.138 -41.357 -76.079  0.00  0.00    +0.000 NA
ENDBRANCH  20  21
ENDBRANCH  18  20
ENDBRANCH   2  18
TORSDOF 4
