REMARK VINA RESULT:    -6.000     17.465     19.405
REMARK INTER + INTRA:          -8.453
REMARK INTER:                  -7.524
REMARK INTRA:                  -0.929
REMARK UNBOUND:                -0.699
REMARK  Name = 
REMARK  8 active torsions:
REMARK  status: ('A' for Active; 'I' for Inactive)
REMARK    1  A    between atoms: C_1  and  C_2
REMARK    2  A    between atoms: C_4  and  C_5
REMARK    3  A    between atoms: C_5  and  S_6
REMARK    4  A    between atoms: S_6  and  C_8
REMARK    5  A    between atoms: C_20  and  C_21
REMARK    6  A    between atoms: C_21  and  C_23
REMARK    7  A    between atoms: C_23  and  C_24
REMARK    8  A    between atoms: C_23  and  C_25
REMARK                            x       y       z     vdW  Elec       q    Type
REMARK                         _______ _______ _______ _____ _____    ______ ____
ROOT
ATOM      1  C   UNL     1     -47.733 -25.292 -62.553  0.00  0.00    +0.000 A 
ATOM      2  N   UNL     1     -47.594 -25.130 -63.928  0.00  0.00    +0.000 N 
ATOM      3  C   UNL     1     -48.312 -24.143 -64.632  0.00  0.00    +0.000 A 
ATOM      4  C   UNL     1     -47.904 -23.679 -65.897  0.00  0.00    +0.000 A 
ATOM      5 BR   UNL     1     -46.263 -24.245 -66.661  0.00  0.00    +0.000 Br
ATOM      6  C   UNL     1     -48.677 -22.757 -66.608  0.00  0.00    +0.000 A 
ATOM      7  C   UNL     1     -49.866 -22.280 -66.062  0.00  0.00    +0.000 A 
ATOM      8  C   UNL     1     -50.287 -22.725 -64.796  0.00  0.00    +0.000 A 
ATOM      9 CL   UNL     1     -51.738 -22.010 -64.193  0.00  0.00    +0.000 Cl
ATOM     10  C   UNL     1     -49.511 -23.661 -64.082  0.00  0.00    +0.000 A 
ATOM     11  C   UNL     1     -49.885 -24.217 -62.756  0.00  0.00    +0.000 A 
ATOM     12  O   UNL     1     -51.060 -24.231 -62.404  0.00  0.00    +0.000 OA
ATOM     13  C   UNL     1     -48.782 -24.782 -61.865  0.00  0.00    +0.000 A 
ATOM     14  H   UNL     1     -46.649 -25.338 -64.280  0.00  0.00    +0.000 HD
ENDROOT
BRANCH   1  15
ATOM     15  S   UNL     1     -46.244 -26.064 -61.814  0.00  0.00    +0.000 S 
ATOM     16  O   UNL     1     -45.257 -24.931 -61.727  0.00  0.00    +0.000 OA
BRANCH  15  17
ATOM     17  C   UNL     1     -45.684 -27.219 -63.110  0.00  0.00    +0.000 C 
BRANCH  17  21
ATOM     18  C   UNL     1     -47.981 -31.727 -62.011  0.00  0.00    +0.000 C 
ATOM     19  C   UNL     1     -47.195 -30.550 -62.443  0.00  0.00    +0.000 A 
ATOM     20  C   UNL     1     -47.317 -29.188 -62.290  0.00  0.00    +0.000 A 
ATOM     21  C   UNL     1     -46.176 -28.638 -62.943  0.00  0.00    +0.000 A 
ATOM     22  N   UNL     1     -45.433 -29.626 -63.471  0.00  0.00    +0.000 NA
ATOM     23  O   UNL     1     -46.069 -30.812 -63.154  0.00  0.00    +0.000 OA
ENDBRANCH  17  21
ENDBRANCH  15  17
ENDBRANCH   1  15
BRANCH  13  24
ATOM     24  C   UNL     1     -48.987 -24.662 -60.371  0.00  0.00    +0.000 C 
ATOM     25  O   UNL     1     -49.131 -25.672 -59.683  0.00  0.00    +0.000 OA
BRANCH  24  26
ATOM     26  C   UNL     1     -49.083 -23.286 -59.712  0.00  0.00    +0.000 C 
ATOM     27  C   UNL     1     -49.933 -23.323 -58.445  0.00  0.00    +0.000 C 
ATOM     28  C   UNL     1     -47.702 -22.699 -59.408  0.00  0.00    +0.000 C 
ENDBRANCH  24  26
ENDBRANCH  13  24
TORSDOF 5
