REMARK VINA RESULT:    -5.137      4.050      5.606
REMARK INTER + INTRA:          -7.558
REMARK INTER:                  -6.990
REMARK INTRA:                  -0.567
REMARK UNBOUND:                -0.920
REMARK  Name = 
REMARK  8 active torsions:
REMARK  status: ('A' for Active; 'I' for Inactive)
REMARK    1  A    between atoms: C_1  and  C_2
REMARK    2  A    between atoms: C_4  and  C_5
REMARK    3  A    between atoms: C_5  and  S_6
REMARK    4  A    between atoms: S_6  and  C_8
REMARK    5  A    between atoms: C_20  and  C_21
REMARK    6  A    between atoms: C_21  and  C_23
REMARK    7  A    between atoms: C_23  and  C_24
REMARK    8  A    between atoms: C_23  and  C_25
REMARK                            x       y       z     vdW  Elec       q    Type
REMARK                         _______ _______ _______ _____ _____    ______ ____
ROOT
ATOM      1  C   UNL     1     -56.620 -43.778 -78.113  0.00  0.00    +0.000 A 
ATOM      2  N   UNL     1     -55.905 -43.600 -79.294  0.00  0.00    +0.000 N 
ATOM      3  C   UNL     1     -54.759 -42.782 -79.348  0.00  0.00    +0.000 A 
ATOM      4  C   UNL     1     -53.799 -42.904 -80.370  0.00  0.00    +0.000 A 
ATOM      5 BR   UNL     1     -53.912 -44.296 -81.653  0.00  0.00    +0.000 Br
ATOM      6  C   UNL     1     -52.712 -42.028 -80.443  0.00  0.00    +0.000 A 
ATOM      7  C   UNL     1     -52.566 -41.021 -79.494  0.00  0.00    +0.000 A 
ATOM      8  C   UNL     1     -53.510 -40.887 -78.460  0.00  0.00    +0.000 A 
ATOM      9 CL   UNL     1     -53.185 -39.648 -77.301  0.00  0.00    +0.000 Cl
ATOM     10  C   UNL     1     -54.611 -41.766 -78.389  0.00  0.00    +0.000 A 
ATOM     11  C   UNL     1     -55.678 -41.687 -77.358  0.00  0.00    +0.000 A 
ATOM     12  O   UNL     1     -55.900 -40.626 -76.783  0.00  0.00    +0.000 OA
ATOM     13  C   UNL     1     -56.493 -42.941 -77.056  0.00  0.00    +0.000 A 
ATOM     14  H   UNL     1     -55.899 -44.426 -79.907  0.00  0.00    +0.000 HD
ENDROOT
BRANCH   1  15
ATOM     15  S   UNL     1     -57.540 -45.362 -78.118  0.00  0.00    +0.000 S 
ATOM     16  O   UNL     1     -58.870 -45.007 -77.510  0.00  0.00    +0.000 OA
BRANCH  15  17
ATOM     17  C   UNL     1     -56.616 -46.388 -76.925  0.00  0.00    +0.000 C 
BRANCH  17  21
ATOM     18  C   UNL     1     -57.561 -51.363 -77.999  0.00  0.00    +0.000 C 
ATOM     19  C   UNL     1     -57.091 -49.996 -77.685  0.00  0.00    +0.000 A 
ATOM     20  C   UNL     1     -57.683 -48.756 -77.610  0.00  0.00    +0.000 A 
ATOM     21  C   UNL     1     -56.637 -47.869 -77.221  0.00  0.00    +0.000 A 
ATOM     22  N   UNL     1     -55.486 -48.551 -77.095  0.00  0.00    +0.000 NA
ATOM     23  O   UNL     1     -55.774 -49.872 -77.381  0.00  0.00    +0.000 OA
ENDBRANCH  17  21
ENDBRANCH  15  17
ENDBRANCH   1  15
BRANCH  13  24
ATOM     24  C   UNL     1     -57.003 -43.094 -75.640  0.00  0.00    +0.000 C 
ATOM     25  O   UNL     1     -56.321 -43.674 -74.796  0.00  0.00    +0.000 OA
BRANCH  24  26
ATOM     26  C   UNL     1     -58.397 -42.591 -75.262  0.00  0.00    +0.000 C 
ATOM     27  C   UNL     1     -58.387 -41.843 -73.931  0.00  0.00    +0.000 C 
ATOM     28  C   UNL     1     -59.006 -41.714 -76.359  0.00  0.00    +0.000 C 
ENDBRANCH  24  26
ENDBRANCH  13  24
TORSDOF 5
