REMARK VINA RESULT:    -7.496      0.000      0.000
REMARK INTER + INTRA:         -10.563
REMARK INTER:                  -9.687
REMARK INTRA:                  -0.876
REMARK UNBOUND:                -0.876
REMARK  Name = 
REMARK  6 active torsions:
REMARK  status: ('A' for Active; 'I' for Inactive)
REMARK    1  A    between atoms: C_1  and  C_2
REMARK    2  A    between atoms: C_4  and  C_5
REMARK    3  A    between atoms: C_5  and  S_6
REMARK    4  A    between atoms: S_6  and  C_8
REMARK    5  A    between atoms: C_20  and  C_21
REMARK    6  A    between atoms: C_21  and  C_23
REMARK                            x       y       z     vdW  Elec       q    Type
REMARK                         _______ _______ _______ _____ _____    ______ ____
ROOT
ATOM      1  C   UNL     1     -55.870 -42.738 -76.749  0.00  0.00    +0.000 A 
ATOM      2  N   UNL     1     -54.558 -43.127 -76.416  0.00  0.00    +0.000 N 
ATOM      3  C   UNL     1     -53.522 -42.159 -76.306  0.00  0.00    +0.000 A 
ATOM      4  C   UNL     1     -52.318 -42.396 -75.616  0.00  0.00    +0.000 A 
ATOM      5 BR   UNL     1     -52.061 -43.988 -74.616  0.00  0.00    +0.000 Br
ATOM      6  C   UNL     1     -51.279 -41.456 -75.626  0.00  0.00    +0.000 A 
ATOM      7  C   UNL     1     -51.446 -40.246 -76.309  0.00  0.00    +0.000 A 
ATOM      8  C   UNL     1     -52.631 -39.987 -76.998  0.00  0.00    +0.000 A 
ATOM      9 CL   UNL     1     -52.767 -38.437 -77.747  0.00  0.00    +0.000 Cl
ATOM     10  C   UNL     1     -53.650 -40.951 -77.011  0.00  0.00    +0.000 A 
ATOM     11  C   UNL     1     -54.900 -40.803 -77.781  0.00  0.00    +0.000 A 
ATOM     12  O   UNL     1     -54.942 -40.167 -78.827  0.00  0.00    +0.000 OA
ATOM     13  C   UNL     1     -56.120 -41.524 -77.288  0.00  0.00    +0.000 A 
ATOM     14  H   UNL     1     -54.539 -43.839 -75.673  0.00  0.00    +0.000 HD
ENDROOT
BRANCH   1  15
ATOM     15  S   UNL     1     -57.125 -43.797 -75.984  0.00  0.00    +0.000 S 
ATOM     16  O   UNL     1     -57.930 -44.314 -77.145  0.00  0.00    +0.000 OA
BRANCH  15  17
ATOM     17  C   UNL     1     -58.235 -42.783 -74.963  0.00  0.00    +0.000 C 
BRANCH  17  21
ATOM     18  C   UNL     1     -55.922 -40.967 -70.771  0.00  0.00    +0.000 C 
ATOM     19  C   UNL     1     -56.688 -41.302 -71.986  0.00  0.00    +0.000 A 
ATOM     20  C   UNL     1     -56.703 -42.366 -72.857  0.00  0.00    +0.000 A 
ATOM     21  C   UNL     1     -57.757 -42.076 -73.752  0.00  0.00    +0.000 A 
ATOM     22  N   UNL     1     -58.293 -40.875 -73.476  0.00  0.00    +0.000 NA
ATOM     23  O   UNL     1     -57.622 -40.396 -72.370  0.00  0.00    +0.000 OA
ENDBRANCH  17  21
ENDBRANCH  15  17
ENDBRANCH   1  15
BRANCH  13  24
ATOM     24  C   UNL     1     -57.360 -40.699 -77.326  0.00  0.00    +0.000 C 
ATOM     25  O   UNL     1     -57.546 -39.820 -76.502  0.00  0.00    +0.000 OA
BRANCH  24  26
ATOM     26  C   UNL     1     -58.337 -40.933 -78.407  0.00  0.00    +0.000 C 
ATOM     27  C   UNL     1     -59.641 -40.176 -78.404  0.00  0.00    +0.000 C 
ATOM     28  C   UNL     1     -59.639 -41.652 -78.143  0.00  0.00    +0.000 C 
ENDBRANCH  24  26
ENDBRANCH  13  24
TORSDOF 5
