REMARK VINA RESULT:    -6.363     12.575     14.186
REMARK INTER + INTRA:          -9.086
REMARK INTER:                  -8.239
REMARK INTRA:                  -0.847
REMARK UNBOUND:                -1.235
REMARK  Name = 
REMARK  5 active torsions:
REMARK  status: ('A' for Active; 'I' for Inactive)
REMARK    1  A    between atoms: C_1  and  C_2
REMARK    2  A    between atoms: C_2  and  C_4
REMARK    3  A    between atoms: C_5  and  S_6
REMARK    4  A    between atoms: S_6  and  C_8
REMARK    5  A    between atoms: C_8  and  C_9
REMARK                            x       y       z     vdW  Elec       q    Type
REMARK                         _______ _______ _______ _____ _____    ______ ____
ROOT
ATOM      1  C   UNL     1     -56.874 -43.364 -78.498  0.00  0.00    +0.000 A 
ATOM      2  C   UNL     1     -55.939 -42.638 -77.841  0.00  0.00    +0.000 A 
ATOM      3  N   UNL     1     -55.012 -43.197 -76.980  0.00  0.00    +0.000 N 
ATOM      4  C   UNL     1     -55.029 -44.550 -76.608  0.00  0.00    +0.000 A 
ATOM      5  C   UNL     1     -54.067 -45.067 -75.722  0.00  0.00    +0.000 A 
ATOM      6 BR   UNL     1     -52.758 -43.937 -74.933  0.00  0.00    +0.000 Br
ATOM      7  C   UNL     1     -54.044 -46.420 -75.394  0.00  0.00    +0.000 A 
ATOM      8  C   UNL     1     -54.984 -47.278 -75.958  0.00  0.00    +0.000 A 
ATOM      9  C   UNL     1     -55.936 -46.794 -76.862  0.00  0.00    +0.000 A 
ATOM     10 CL   UNL     1     -57.040 -47.979 -77.470  0.00  0.00    +0.000 Cl
ATOM     11  C   UNL     1     -55.949 -45.427 -77.209  0.00  0.00    +0.000 A 
ATOM     12  C   UNL     1     -56.918 -44.836 -78.174  0.00  0.00    +0.000 A 
ATOM     13  O   UNL     1     -57.782 -45.541 -78.680  0.00  0.00    +0.000 OA
ATOM     14  H   UNL     1     -54.618 -42.555 -76.289  0.00  0.00    +0.000 HD
ENDROOT
BRANCH   1  16
ATOM     15  C   UNL     1     -57.436 -42.545 -80.904  0.00  0.00    +0.000 C 
ATOM     16  C   UNL     1     -57.866 -42.795 -79.476  0.00  0.00    +0.000 C 
ATOM     17  O   UNL     1     -59.012 -42.499 -79.140  0.00  0.00    +0.000 OA
ENDBRANCH   1  16
BRANCH   2  18
ATOM     18  S   UNL     1     -55.925 -40.815 -77.898  0.00  0.00    +0.000 S 
ATOM     19  O   UNL     1     -55.715 -40.430 -76.457  0.00  0.00    +0.000 OA
BRANCH  18  20
ATOM     20  C   UNL     1     -54.308 -40.562 -78.730  0.00  0.00    +0.000 C 
BRANCH  20  21
ATOM     21  C   UNL     1     -53.291 -39.870 -77.850  0.00  0.00    +0.000 A 
ATOM     22  C   UNL     1     -52.375 -40.606 -77.078  0.00  0.00    +0.000 A 
ATOM     23  C   UNL     1     -51.428 -39.959 -76.279  0.00  0.00    +0.000 A 
ATOM     24  C   UNL     1     -51.375 -38.569 -76.246  0.00  0.00    +0.000 A 
ATOM     25  C   UNL     1     -52.265 -37.824 -77.017  0.00  0.00    +0.000 A 
ATOM     26  C   UNL     1     -53.215 -38.469 -77.814  0.00  0.00    +0.000 A 
ENDBRANCH  20  21
ENDBRANCH  18  20
ENDBRANCH   2  18
TORSDOF 4
