REMARK VINA RESULT:    -6.635      0.000      0.000
REMARK INTER + INTRA:          -9.043
REMARK INTER:                  -8.187
REMARK INTRA:                  -0.856
REMARK UNBOUND:                -0.856
REMARK  Name = 
REMARK  6 active torsions:
REMARK  status: ('A' for Active; 'I' for Inactive)
REMARK    1  A    between atoms: C_1  and  C_2
REMARK    2  A    between atoms: C_2  and  C_4
REMARK    3  A    between atoms: C_5  and  S_6
REMARK    4  A    between atoms: S_6  and  C_8
REMARK    5  A    between atoms: C_8  and  C_9
REMARK    6  A    between atoms: C_11  and  C_12
REMARK                            x       y       z     vdW  Elec       q    Type
REMARK                         _______ _______ _______ _____ _____    ______ ____
ROOT
ATOM      1  C   UNL     1     -56.911 -40.787 -61.896  0.00  0.00    +0.000 A 
ATOM      2  C   UNL     1     -55.976 -41.543 -62.512  0.00  0.00    +0.000 A 
ATOM      3  N   UNL     1     -54.966 -41.001 -63.283  0.00  0.00    +0.000 N 
ATOM      4  C   UNL     1     -54.880 -39.631 -63.582  0.00  0.00    +0.000 A 
ATOM      5  C   UNL     1     -53.814 -39.122 -64.341  0.00  0.00    +0.000 A 
ATOM      6 BR   UNL     1     -52.485 -40.279 -65.054  0.00  0.00    +0.000 Br
ATOM      7  C   UNL     1     -53.694 -37.754 -64.588  0.00  0.00    +0.000 A 
ATOM      8  C   UNL     1     -54.645 -36.877 -64.081  0.00  0.00    +0.000 A 
ATOM      9  C   UNL     1     -55.712 -37.354 -63.315  0.00  0.00    +0.000 A 
ATOM     10 CL   UNL     1     -56.829 -36.146 -62.782  0.00  0.00    +0.000 Cl
ATOM     11  C   UNL     1     -55.812 -38.733 -63.037  0.00  0.00    +0.000 A 
ATOM     12  C   UNL     1     -56.861 -39.304 -62.160  0.00  0.00    +0.000 A 
ATOM     13  O   UNL     1     -57.693 -38.565 -61.653  0.00  0.00    +0.000 OA
ATOM     14  H   UNL     1     -54.439 -41.634 -63.879  0.00  0.00    +0.000 HD
ENDROOT
BRANCH   1  16
ATOM     15  C   UNL     1     -57.642 -41.510 -59.509  0.00  0.00    +0.000 C 
ATOM     16  C   UNL     1     -57.976 -41.306 -60.967  0.00  0.00    +0.000 C 
ATOM     17  O   UNL     1     -59.094 -41.596 -61.374  0.00  0.00    +0.000 OA
ENDBRANCH   1  16
BRANCH   2  18
ATOM     18  S   UNL     1     -56.052 -43.374 -62.466  0.00  0.00    +0.000 S 
ATOM     19  O   UNL     1     -55.707 -43.786 -63.872  0.00  0.00    +0.000 OA
BRANCH  18  20
ATOM     20  C   UNL     1     -54.562 -43.726 -61.464  0.00  0.00    +0.000 C 
BRANCH  20  21
ATOM     21  C   UNL     1     -53.441 -44.264 -62.292  0.00  0.00    +0.000 A 
ATOM     22  C   UNL     1     -52.429 -43.556 -62.990  0.00  0.00    +0.000 A 
ATOM     23  C   UNL     1     -51.618 -44.535 -63.518  0.00  0.00    +0.000 A 
ATOM     24  C   UNL     1     -50.394 -44.536 -64.344  0.00  0.00    +0.000 C 
ATOM     25  O   UNL     1     -52.106 -45.753 -63.155  0.00  0.00    +0.000 OA
ATOM     26  N   UNL     1     -53.242 -45.585 -62.379  0.00  0.00    +0.000 NA
ENDBRANCH  20  21
ENDBRANCH  18  20
ENDBRANCH   2  18
TORSDOF 4
