REMARK VINA RESULT:    -5.044     13.333     15.347
REMARK INTER + INTRA:          -7.064
REMARK INTER:                  -6.260
REMARK INTRA:                  -0.804
REMARK UNBOUND:                -0.841
REMARK  Name = 
REMARK  6 active torsions:
REMARK  status: ('A' for Active; 'I' for Inactive)
REMARK    1  A    between atoms: C_1  and  C_2
REMARK    2  A    between atoms: C_2  and  C_4
REMARK    3  A    between atoms: C_5  and  S_6
REMARK    4  A    between atoms: S_6  and  C_8
REMARK    5  A    between atoms: C_8  and  C_9
REMARK    6  A    between atoms: C_11  and  C_12
REMARK                            x       y       z     vdW  Elec       q    Type
REMARK                         _______ _______ _______ _____ _____    ______ ____
ROOT
ATOM      1  C   UNL     1     -65.185 -43.052 -69.960  0.00  0.00    +0.000 A 
ATOM      2  C   UNL     1     -66.376 -43.383 -70.507  0.00  0.00    +0.000 A 
ATOM      3  N   UNL     1     -66.532 -43.771 -71.823  0.00  0.00    +0.000 N 
ATOM      4  C   UNL     1     -65.487 -43.717 -72.760  0.00  0.00    +0.000 A 
ATOM      5  C   UNL     1     -65.706 -44.082 -74.103  0.00  0.00    +0.000 A 
ATOM      6 BR   UNL     1     -67.433 -44.591 -74.707  0.00  0.00    +0.000 Br
ATOM      7  C   UNL     1     -64.665 -44.079 -75.025  0.00  0.00    +0.000 A 
ATOM      8  C   UNL     1     -63.383 -43.719 -74.614  0.00  0.00    +0.000 A 
ATOM      9  C   UNL     1     -63.136 -43.376 -73.279  0.00  0.00    +0.000 A 
ATOM     10 CL   UNL     1     -61.499 -42.943 -72.926  0.00  0.00    +0.000 Cl
ATOM     11  C   UNL     1     -64.186 -43.393 -72.340  0.00  0.00    +0.000 A 
ATOM     12  C   UNL     1     -64.004 -43.050 -70.898  0.00  0.00    +0.000 A 
ATOM     13  O   UNL     1     -62.898 -42.726 -70.481  0.00  0.00    +0.000 OA
ATOM     14  H   UNL     1     -67.470 -43.643 -72.208  0.00  0.00    +0.000 HD
ENDROOT
BRANCH   1  16
ATOM     15  C   UNL     1     -64.999 -41.191 -68.146  0.00  0.00    +0.000 C 
ATOM     16  C   UNL     1     -64.988 -42.658 -68.519  0.00  0.00    +0.000 C 
ATOM     17  O   UNL     1     -64.820 -43.496 -67.637  0.00  0.00    +0.000 OA
ENDBRANCH   1  16
BRANCH   2  18
ATOM     18  S   UNL     1     -67.933 -43.190 -69.578  0.00  0.00    +0.000 S 
ATOM     19  O   UNL     1     -68.173 -41.704 -69.606  0.00  0.00    +0.000 OA
BRANCH  18  20
ATOM     20  C   UNL     1     -69.093 -43.912 -70.794  0.00  0.00    +0.000 C 
BRANCH  20  21
ATOM     21  C   UNL     1     -69.562 -45.272 -70.394  0.00  0.00    +0.000 A 
ATOM     22  C   UNL     1     -70.182 -46.290 -71.165  0.00  0.00    +0.000 A 
ATOM     23  C   UNL     1     -70.389 -47.319 -70.279  0.00  0.00    +0.000 A 
ATOM     24  C   UNL     1     -71.025 -48.646 -70.366  0.00  0.00    +0.000 C 
ATOM     25  O   UNL     1     -69.884 -46.969 -69.068  0.00  0.00    +0.000 OA
ATOM     26  N   UNL     1     -69.358 -45.692 -69.135  0.00  0.00    +0.000 NA
ENDBRANCH  20  21
ENDBRANCH  18  20
ENDBRANCH   2  18
TORSDOF 4
