MODEL 1
REMARK VINA RESULT:    -7.424      0.000      0.000
REMARK INTER + INTRA:         -10.537
REMARK INTER:                  -9.594
REMARK INTRA:                  -0.943
REMARK UNBOUND:                -0.943
REMARK  Name = 
REMARK  6 active torsions:
REMARK  status: ('A' for Active; 'I' for Inactive)
REMARK    1  A    between atoms: C_1  and  C_2
REMARK    2  A    between atoms: C_4  and  C_5
REMARK    3  A    between atoms: C_5  and  S_6
REMARK    4  A    between atoms: S_6  and  C_8
REMARK    5  A    between atoms: C_20  and  C_21
REMARK    6  A    between atoms: C_21  and  C_23
REMARK                            x       y       z     vdW  Elec       q    Type
REMARK                         _______ _______ _______ _____ _____    ______ ____
ROOT
ATOM      1  C   UNL     1     -56.008 -42.733 -76.871  0.00  0.00    +0.000 A 
ATOM      2  N   UNL     1     -54.694 -43.100 -76.522  0.00  0.00    +0.000 N 
ATOM      3  C   UNL     1     -53.673 -42.116 -76.414  0.00  0.00    +0.000 A 
ATOM      4  C   UNL     1     -52.472 -42.330 -75.712  0.00  0.00    +0.000 A 
ATOM      5 BR   UNL     1     -52.201 -43.906 -74.692  0.00  0.00    +0.000 Br
ATOM      6  C   UNL     1     -51.445 -41.375 -75.723  0.00  0.00    +0.000 A 
ATOM      7  C   UNL     1     -51.624 -40.175 -76.420  0.00  0.00    +0.000 A 
ATOM      8  C   UNL     1     -52.806 -39.940 -77.122  0.00  0.00    +0.000 A 
ATOM      9 CL   UNL     1     -52.957 -38.400 -77.889  0.00  0.00    +0.000 Cl
ATOM     10  C   UNL     1     -53.811 -40.918 -77.133  0.00  0.00    +0.000 A 
ATOM     11  C   UNL     1     -55.057 -40.796 -77.915  0.00  0.00    +0.000 A 
ATOM     12  O   UNL     1     -55.098 -40.172 -78.968  0.00  0.00    +0.000 OA
ATOM     13  C   UNL     1     -56.270 -41.529 -77.425  0.00  0.00    +0.000 A 
ATOM     14  H   UNL     1     -54.672 -43.804 -75.772  0.00  0.00    +0.000 HD
ENDROOT
BRANCH   1  15
ATOM     15  S   UNL     1     -57.255 -43.801 -76.105  0.00  0.00    +0.000 S 
ATOM     16  O   UNL     1     -58.072 -44.305 -77.264  0.00  0.00    +0.000 OA
BRANCH  15  17
ATOM     17  C   UNL     1     -58.354 -42.799 -75.061  0.00  0.00    +0.000 C 
BRANCH  17  21
ATOM     18  C   UNL     1     -55.976 -40.931 -70.930  0.00  0.00    +0.000 C 
ATOM     19  C   UNL     1     -56.759 -41.280 -72.129  0.00  0.00    +0.000 A 
ATOM     20  C   UNL     1     -56.793 -42.358 -72.982  0.00  0.00    +0.000 A 
ATOM     21  C   UNL     1     -57.856 -42.076 -73.869  0.00  0.00    +0.000 A 
ATOM     22  N   UNL     1     -58.381 -40.867 -73.606  0.00  0.00    +0.000 NA
ATOM     23  O   UNL     1     -57.693 -40.374 -72.516  0.00  0.00    +0.000 OA
ENDBRANCH  17  21
ENDBRANCH  15  17
ENDBRANCH   1  15
BRANCH  13  24
ATOM     24  C   UNL     1     -57.522 -40.721 -77.483  0.00  0.00    +0.000 C 
ATOM     25  O   UNL     1     -57.714 -39.819 -76.686  0.00  0.00    +0.000 OA
BRANCH  24  26
ATOM     26  C   UNL     1     -58.501 -41.002 -78.550  0.00  0.00    +0.000 C 
ATOM     27  C   UNL     1     -59.777 -40.203 -78.615  0.00  0.00    +0.000 C 
ATOM     28  C   UNL     1     -59.829 -41.653 -78.243  0.00  0.00    +0.000 C 
ENDBRANCH  24  26
ENDBRANCH  13  24
TORSDOF 5
ENDMDL
MODEL 2
REMARK VINA RESULT:    -6.727      4.576      8.175
REMARK INTER + INTRA:          -9.636
REMARK INTER:                  -9.246
REMARK INTRA:                  -0.390
REMARK UNBOUND:                -0.943
REMARK  Name = 
REMARK  6 active torsions:
REMARK  status: ('A' for Active; 'I' for Inactive)
REMARK    1  A    between atoms: C_1  and  C_2
REMARK    2  A    between atoms: C_4  and  C_5
REMARK    3  A    between atoms: C_5  and  S_6
REMARK    4  A    between atoms: S_6  and  C_8
REMARK    5  A    between atoms: C_20  and  C_21
REMARK    6  A    between atoms: C_21  and  C_23
REMARK                            x       y       z     vdW  Elec       q    Type
REMARK                         _______ _______ _______ _____ _____    ______ ____
ROOT
ATOM      1  C   UNL     1     -53.509 -42.240 -78.546  0.00  0.00    +0.000 A 
ATOM      2  N   UNL     1     -54.708 -42.962 -78.702  0.00  0.00    +0.000 N 
ATOM      3  C   UNL     1     -55.688 -42.968 -77.671  0.00  0.00    +0.000 A 
ATOM      4  C   UNL     1     -57.032 -43.321 -77.892  0.00  0.00    +0.000 A 
ATOM      5 BR   UNL     1     -57.684 -43.646 -79.644  0.00  0.00    +0.000 Br
ATOM      6  C   UNL     1     -57.940 -43.421 -76.828  0.00  0.00    +0.000 A 
ATOM      7  C   UNL     1     -57.514 -43.139 -75.526  0.00  0.00    +0.000 A 
ATOM      8  C   UNL     1     -56.186 -42.785 -75.282  0.00  0.00    +0.000 A 
ATOM      9 CL   UNL     1     -55.779 -42.387 -73.652  0.00  0.00    +0.000 Cl
ATOM     10  C   UNL     1     -55.279 -42.724 -76.351  0.00  0.00    +0.000 A 
ATOM     11  C   UNL     1     -53.840 -42.443 -76.180  0.00  0.00    +0.000 A 
ATOM     12  O   UNL     1     -53.237 -42.765 -75.164  0.00  0.00    +0.000 OA
ATOM     13  C   UNL     1     -53.105 -41.817 -77.327  0.00  0.00    +0.000 A 
ATOM     14  H   UNL     1     -55.102 -42.863 -79.647  0.00  0.00    +0.000 HD
ENDROOT
BRANCH   1  15
ATOM     15  S   UNL     1     -52.876 -41.593 -80.116  0.00  0.00    +0.000 S 
ATOM     16  O   UNL     1     -53.968 -41.893 -81.106  0.00  0.00    +0.000 OA
BRANCH  15  17
ATOM     17  C   UNL     1     -51.412 -42.544 -80.618  0.00  0.00    +0.000 C 
BRANCH  17  21
ATOM     18  C   UNL     1     -49.949 -43.064 -85.497  0.00  0.00    +0.000 C 
ATOM     19  C   UNL     1     -50.446 -43.112 -84.110  0.00  0.00    +0.000 A 
ATOM     20  C   UNL     1     -50.368 -42.272 -83.024  0.00  0.00    +0.000 A 
ATOM     21  C   UNL     1     -51.155 -42.899 -82.033  0.00  0.00    +0.000 A 
ATOM     22  N   UNL     1     -51.619 -44.080 -82.476  0.00  0.00    +0.000 NA
ATOM     23  O   UNL     1     -51.174 -44.208 -83.775  0.00  0.00    +0.000 OA
ENDBRANCH  17  21
ENDBRANCH  15  17
ENDBRANCH   1  15
BRANCH  13  24
ATOM     24  C   UNL     1     -52.183 -40.718 -76.921  0.00  0.00    +0.000 C 
ATOM     25  O   UNL     1     -52.613 -39.598 -76.705  0.00  0.00    +0.000 OA
BRANCH  24  26
ATOM     26  C   UNL     1     -50.752 -41.022 -76.737  0.00  0.00    +0.000 C 
ATOM     27  C   UNL     1     -50.226 -41.306 -75.353  0.00  0.00    +0.000 C 
ATOM     28  C   UNL     1     -49.826 -40.044 -76.053  0.00  0.00    +0.000 C 
ENDBRANCH  24  26
ENDBRANCH  13  24
TORSDOF 5
ENDMDL
MODEL 3
REMARK VINA RESULT:    -6.665     11.225     13.677
REMARK INTER + INTRA:          -9.556
REMARK INTER:                  -8.669
REMARK INTRA:                  -0.888
REMARK UNBOUND:                -0.943
REMARK  Name = 
REMARK  6 active torsions:
REMARK  status: ('A' for Active; 'I' for Inactive)
REMARK    1  A    between atoms: C_1  and  C_2
REMARK    2  A    between atoms: C_4  and  C_5
REMARK    3  A    between atoms: C_5  and  S_6
REMARK    4  A    between atoms: S_6  and  C_8
REMARK    5  A    between atoms: C_20  and  C_21
REMARK    6  A    between atoms: C_21  and  C_23
REMARK                            x       y       z     vdW  Elec       q    Type
REMARK                         _______ _______ _______ _____ _____    ______ ____
ROOT
ATOM      1  C   UNL     1     -57.730 -41.056 -62.707  0.00  0.00    +0.000 A 
ATOM      2  N   UNL     1     -57.249 -39.784 -62.340  0.00  0.00    +0.000 N 
ATOM      3  C   UNL     1     -56.170 -39.187 -63.048  0.00  0.00    +0.000 A 
ATOM      4  C   UNL     1     -55.896 -37.807 -63.009  0.00  0.00    +0.000 A 
ATOM      5 BR   UNL     1     -57.070 -36.600 -62.137  0.00  0.00    +0.000 Br
ATOM      6  C   UNL     1     -54.758 -37.276 -63.632  0.00  0.00    +0.000 A 
ATOM      7  C   UNL     1     -53.891 -38.125 -64.331  0.00  0.00    +0.000 A 
ATOM      8  C   UNL     1     -54.144 -39.495 -64.386  0.00  0.00    +0.000 A 
ATOM      9 CL   UNL     1     -53.055 -40.445 -65.332  0.00  0.00    +0.000 Cl
ATOM     10  C   UNL     1     -55.266 -40.020 -63.727  0.00  0.00    +0.000 A 
ATOM     11  C   UNL     1     -55.567 -41.463 -63.658  0.00  0.00    +0.000 A 
ATOM     12  O   UNL     1     -54.681 -42.307 -63.666  0.00  0.00    +0.000 OA
ATOM     13  C   UNL     1     -57.000 -41.875 -63.495  0.00  0.00    +0.000 A 
ATOM     14  H   UNL     1     -58.010 -39.129 -62.116  0.00  0.00    +0.000 HD
ENDROOT
BRANCH   1  15
ATOM     15  S   UNL     1     -59.507 -41.241 -62.404  0.00  0.00    +0.000 S 
ATOM     16  O   UNL     1     -60.008 -39.830 -62.264  0.00  0.00    +0.000 OA
BRANCH  15  17
ATOM     17  C   UNL     1     -59.767 -42.071 -60.809  0.00  0.00    +0.000 C 
BRANCH  17  21
ATOM     18  C   UNL     1     -61.829 -46.661 -59.860  0.00  0.00    +0.000 C 
ATOM     19  C   UNL     1     -61.165 -45.426 -60.314  0.00  0.00    +0.000 A 
ATOM     20  C   UNL     1     -61.097 -44.135 -59.845  0.00  0.00    +0.000 A 
ATOM     21  C   UNL     1     -60.202 -43.485 -60.723  0.00  0.00    +0.000 A 
ATOM     22  N   UNL     1     -59.812 -44.319 -61.702  0.00  0.00    +0.000 NA
ATOM     23  O   UNL     1     -60.415 -45.531 -61.441  0.00  0.00    +0.000 OA
ENDBRANCH  17  21
ENDBRANCH  15  17
ENDBRANCH   1  15
BRANCH  13  24
ATOM     24  C   UNL     1     -57.399 -43.015 -64.370  0.00  0.00    +0.000 C 
ATOM     25  O   UNL     1     -57.378 -44.158 -63.947  0.00  0.00    +0.000 OA
BRANCH  24  26
ATOM     26  C   UNL     1     -57.864 -42.730 -65.740  0.00  0.00    +0.000 C 
ATOM     27  C   UNL     1     -57.864 -43.833 -66.767  0.00  0.00    +0.000 C 
ATOM     28  C   UNL     1     -56.900 -42.694 -66.903  0.00  0.00    +0.000 C 
ENDBRANCH  24  26
ENDBRANCH  13  24
TORSDOF 5
ENDMDL
MODEL 4
REMARK VINA RESULT:    -6.661      4.064      6.285
REMARK INTER + INTRA:          -9.550
REMARK INTER:                  -8.406
REMARK INTRA:                  -1.144
REMARK UNBOUND:                -0.943
REMARK  Name = 
REMARK  6 active torsions:
REMARK  status: ('A' for Active; 'I' for Inactive)
REMARK    1  A    between atoms: C_1  and  C_2
REMARK    2  A    between atoms: C_4  and  C_5
REMARK    3  A    between atoms: C_5  and  S_6
REMARK    4  A    between atoms: S_6  and  C_8
REMARK    5  A    between atoms: C_20  and  C_21
REMARK    6  A    between atoms: C_21  and  C_23
REMARK                            x       y       z     vdW  Elec       q    Type
REMARK                         _______ _______ _______ _____ _____    ______ ____
ROOT
ATOM      1  C   UNL     1     -54.820 -43.385 -78.153  0.00  0.00    +0.000 A 
ATOM      2  N   UNL     1     -55.021 -44.431 -79.074  0.00  0.00    +0.000 N 
ATOM      3  C   UNL     1     -55.414 -45.723 -78.629  0.00  0.00    +0.000 A 
ATOM      4  C   UNL     1     -56.001 -46.682 -79.476  0.00  0.00    +0.000 A 
ATOM      5 BR   UNL     1     -56.480 -46.250 -81.260  0.00  0.00    +0.000 Br
ATOM      6  C   UNL     1     -56.272 -47.980 -79.023  0.00  0.00    +0.000 A 
ATOM      7  C   UNL     1     -55.982 -48.326 -77.698  0.00  0.00    +0.000 A 
ATOM      8  C   UNL     1     -55.403 -47.392 -76.839  0.00  0.00    +0.000 A 
ATOM      9 CL   UNL     1     -55.151 -47.894 -75.206  0.00  0.00    +0.000 Cl
ATOM     10  C   UNL     1     -55.103 -46.106 -77.315  0.00  0.00    +0.000 A 
ATOM     11  C   UNL     1     -54.413 -45.082 -76.508  0.00  0.00    +0.000 A 
ATOM     12  O   UNL     1     -53.605 -45.382 -75.638  0.00  0.00    +0.000 OA
ATOM     13  C   UNL     1     -54.668 -43.640 -76.834  0.00  0.00    +0.000 A 
ATOM     14  H   UNL     1     -55.517 -44.115 -79.919  0.00  0.00    +0.000 HD
ENDROOT
BRANCH   1  15
ATOM     15  S   UNL     1     -55.234 -41.761 -78.841  0.00  0.00    +0.000 S 
ATOM     16  O   UNL     1     -55.742 -42.065 -80.224  0.00  0.00    +0.000 OA
BRANCH  15  17
ATOM     17  C   UNL     1     -53.718 -40.775 -79.024  0.00  0.00    +0.000 C 
BRANCH  17  21
ATOM     18  C   UNL     1     -49.943 -40.923 -75.567  0.00  0.00    +0.000 C 
ATOM     19  C   UNL     1     -51.071 -40.685 -76.487  0.00  0.00    +0.000 A 
ATOM     20  C   UNL     1     -51.622 -41.376 -77.540  0.00  0.00    +0.000 A 
ATOM     21  C   UNL     1     -52.751 -40.614 -77.913  0.00  0.00    +0.000 A 
ATOM     22  N   UNL     1     -52.830 -39.495 -77.172  0.00  0.00    +0.000 NA
ATOM     23  O   UNL     1     -51.779 -39.546 -76.281  0.00  0.00    +0.000 OA
ENDBRANCH  17  21
ENDBRANCH  15  17
ENDBRANCH   1  15
BRANCH  13  24
ATOM     24  C   UNL     1     -54.879 -42.782 -75.634  0.00  0.00    +0.000 C 
ATOM     25  O   UNL     1     -53.928 -42.307 -75.037  0.00  0.00    +0.000 OA
BRANCH  24  26
ATOM     26  C   UNL     1     -56.259 -42.478 -75.210  0.00  0.00    +0.000 C 
ATOM     27  C   UNL     1     -56.523 -42.070 -73.783  0.00  0.00    +0.000 C 
ATOM     28  C   UNL     1     -57.011 -43.398 -74.277  0.00  0.00    +0.000 C 
ENDBRANCH  24  26
ENDBRANCH  13  24
TORSDOF 5
ENDMDL
MODEL 5
REMARK VINA RESULT:    -6.598      2.970      4.506
REMARK INTER + INTRA:          -9.470
REMARK INTER:                  -8.653
REMARK INTRA:                  -0.816
REMARK UNBOUND:                -0.943
REMARK  Name = 
REMARK  6 active torsions:
REMARK  status: ('A' for Active; 'I' for Inactive)
REMARK    1  A    between atoms: C_1  and  C_2
REMARK    2  A    between atoms: C_4  and  C_5
REMARK    3  A    between atoms: C_5  and  S_6
REMARK    4  A    between atoms: S_6  and  C_8
REMARK    5  A    between atoms: C_20  and  C_21
REMARK    6  A    between atoms: C_21  and  C_23
REMARK                            x       y       z     vdW  Elec       q    Type
REMARK                         _______ _______ _______ _____ _____    ______ ____
ROOT
ATOM      1  C   UNL     1     -55.674 -43.283 -77.421  0.00  0.00    +0.000 A 
ATOM      2  N   UNL     1     -54.368 -43.429 -76.913  0.00  0.00    +0.000 N 
ATOM      3  C   UNL     1     -53.531 -42.295 -76.731  0.00  0.00    +0.000 A 
ATOM      4  C   UNL     1     -52.402 -42.300 -75.891  0.00  0.00    +0.000 A 
ATOM      5 BR   UNL     1     -52.012 -43.791 -74.785  0.00  0.00    +0.000 Br
ATOM      6  C   UNL     1     -51.541 -41.196 -75.826  0.00  0.00    +0.000 A 
ATOM      7  C   UNL     1     -51.820 -40.055 -76.587  0.00  0.00    +0.000 A 
ATOM      8  C   UNL     1     -52.934 -40.025 -77.425  0.00  0.00    +0.000 A 
ATOM      9 CL   UNL     1     -53.230 -38.546 -78.266  0.00  0.00    +0.000 Cl
ATOM     10  C   UNL     1     -53.768 -41.150 -77.509  0.00  0.00    +0.000 A 
ATOM     11  C   UNL     1     -54.917 -41.243 -78.430  0.00  0.00    +0.000 A 
ATOM     12  O   UNL     1     -54.931 -40.657 -79.505  0.00  0.00    +0.000 OA
ATOM     13  C   UNL     1     -56.052 -42.148 -78.049  0.00  0.00    +0.000 A 
ATOM     14  H   UNL     1     -54.326 -44.104 -76.137  0.00  0.00    +0.000 HD
ENDROOT
BRANCH   1  15
ATOM     15  S   UNL     1     -56.822 -44.517 -76.757  0.00  0.00    +0.000 S 
ATOM     16  O   UNL     1     -55.947 -45.442 -75.956  0.00  0.00    +0.000 OA
BRANCH  15  17
ATOM     17  C   UNL     1     -57.529 -45.485 -78.123  0.00  0.00    +0.000 C 
BRANCH  17  21
ATOM     18  C   UNL     1     -61.050 -49.161 -77.574  0.00  0.00    +0.000 C 
ATOM     19  C   UNL     1     -59.892 -48.260 -77.721  0.00  0.00    +0.000 A 
ATOM     20  C   UNL     1     -59.739 -46.915 -77.964  0.00  0.00    +0.000 A 
ATOM     21  C   UNL     1     -58.345 -46.697 -77.883  0.00  0.00    +0.000 A 
ATOM     22  N   UNL     1     -57.698 -47.857 -77.674  0.00  0.00    +0.000 NA
ATOM     23  O   UNL     1     -58.670 -48.830 -77.572  0.00  0.00    +0.000 OA
ENDBRANCH  17  21
ENDBRANCH  15  17
ENDBRANCH   1  15
BRANCH  13  24
ATOM     24  C   UNL     1     -57.398 -41.550 -78.279  0.00  0.00    +0.000 C 
ATOM     25  O   UNL     1     -58.052 -41.856 -79.260  0.00  0.00    +0.000 OA
BRANCH  24  26
ATOM     26  C   UNL     1     -57.943 -40.618 -77.273  0.00  0.00    +0.000 C 
ATOM     27  C   UNL     1     -57.208 -40.417 -75.973  0.00  0.00    +0.000 C 
ATOM     28  C   UNL     1     -58.530 -41.122 -75.976  0.00  0.00    +0.000 C 
ENDBRANCH  24  26
ENDBRANCH  13  24
TORSDOF 5
ENDMDL
MODEL 6
REMARK VINA RESULT:    -6.515      3.914      7.396
REMARK INTER + INTRA:          -9.362
REMARK INTER:                  -8.668
REMARK INTRA:                  -0.695
REMARK UNBOUND:                -0.943
REMARK  Name = 
REMARK  6 active torsions:
REMARK  status: ('A' for Active; 'I' for Inactive)
REMARK    1  A    between atoms: C_1  and  C_2
REMARK    2  A    between atoms: C_4  and  C_5
REMARK    3  A    between atoms: C_5  and  S_6
REMARK    4  A    between atoms: S_6  and  C_8
REMARK    5  A    between atoms: C_20  and  C_21
REMARK    6  A    between atoms: C_21  and  C_23
REMARK                            x       y       z     vdW  Elec       q    Type
REMARK                         _______ _______ _______ _____ _____    ______ ____
ROOT
ATOM      1  C   UNL     1     -55.408 -42.465 -77.696  0.00  0.00    +0.000 A 
ATOM      2  N   UNL     1     -56.720 -42.910 -77.446  0.00  0.00    +0.000 N 
ATOM      3  C   UNL     1     -57.357 -42.625 -76.207  0.00  0.00    +0.000 A 
ATOM      4  C   UNL     1     -58.752 -42.683 -76.030  0.00  0.00    +0.000 A 
ATOM      5 BR   UNL     1     -59.915 -42.977 -77.500  0.00  0.00    +0.000 Br
ATOM      6  C   UNL     1     -59.331 -42.502 -74.766  0.00  0.00    +0.000 A 
ATOM      7  C   UNL     1     -58.513 -42.232 -73.662  0.00  0.00    +0.000 A 
ATOM      8  C   UNL     1     -57.128 -42.168 -73.814  0.00  0.00    +0.000 A 
ATOM      9 CL   UNL     1     -56.214 -41.757 -72.407  0.00  0.00    +0.000 Cl
ATOM     10  C   UNL     1     -56.559 -42.386 -75.078  0.00  0.00    +0.000 A 
ATOM     11  C   UNL     1     -55.103 -42.423 -75.318  0.00  0.00    +0.000 A 
ATOM     12  O   UNL     1     -54.317 -42.798 -74.458  0.00  0.00    +0.000 OA
ATOM     13  C   UNL     1     -54.607 -42.059 -76.686  0.00  0.00    +0.000 A 
ATOM     14  H   UNL     1     -57.334 -42.793 -78.264  0.00  0.00    +0.000 HD
ENDROOT
BRANCH   1  15
ATOM     15  S   UNL     1     -55.121 -42.089 -79.445  0.00  0.00    +0.000 S 
ATOM     16  O   UNL     1     -56.307 -42.689 -80.151  0.00  0.00    +0.000 OA
BRANCH  15  17
ATOM     17  C   UNL     1     -53.641 -42.972 -80.021  0.00  0.00    +0.000 C 
BRANCH  17  21
ATOM     18  C   UNL     1     -50.276 -41.867 -83.719  0.00  0.00    +0.000 C 
ATOM     19  C   UNL     1     -51.394 -42.119 -82.791  0.00  0.00    +0.000 A 
ATOM     20  C   UNL     1     -51.506 -42.682 -81.541  0.00  0.00    +0.000 A 
ATOM     21  C   UNL     1     -52.866 -42.515 -81.198  0.00  0.00    +0.000 A 
ATOM     22  N   UNL     1     -53.543 -41.950 -82.213  0.00  0.00    +0.000 NA
ATOM     23  O   UNL     1     -52.618 -41.703 -83.205  0.00  0.00    +0.000 OA
ENDBRANCH  17  21
ENDBRANCH  15  17
ENDBRANCH   1  15
BRANCH  13  24
ATOM     24  C   UNL     1     -53.412 -41.168 -76.673  0.00  0.00    +0.000 C 
ATOM     25  O   UNL     1     -53.543 -39.956 -76.683  0.00  0.00    +0.000 OA
BRANCH  24  26
ATOM     26  C   UNL     1     -52.071 -41.777 -76.599  0.00  0.00    +0.000 C 
ATOM     27  C   UNL     1     -50.877 -40.908 -76.298  0.00  0.00    +0.000 C 
ATOM     28  C   UNL     1     -51.030 -41.512 -77.661  0.00  0.00    +0.000 C 
ENDBRANCH  24  26
ENDBRANCH  13  24
TORSDOF 5
ENDMDL
MODEL 7
REMARK VINA RESULT:    -6.458      3.314      5.873
REMARK INTER + INTRA:          -9.289
REMARK INTER:                  -8.073
REMARK INTRA:                  -1.216
REMARK UNBOUND:                -0.943
REMARK  Name = 
REMARK  6 active torsions:
REMARK  status: ('A' for Active; 'I' for Inactive)
REMARK    1  A    between atoms: C_1  and  C_2
REMARK    2  A    between atoms: C_4  and  C_5
REMARK    3  A    between atoms: C_5  and  S_6
REMARK    4  A    between atoms: S_6  and  C_8
REMARK    5  A    between atoms: C_20  and  C_21
REMARK    6  A    between atoms: C_21  and  C_23
REMARK                            x       y       z     vdW  Elec       q    Type
REMARK                         _______ _______ _______ _____ _____    ______ ____
ROOT
ATOM      1  C   UNL     1     -56.280 -41.872 -77.574  0.00  0.00    +0.000 A 
ATOM      2  N   UNL     1     -55.384 -40.798 -77.404  0.00  0.00    +0.000 N 
ATOM      3  C   UNL     1     -54.061 -41.027 -76.936  0.00  0.00    +0.000 A 
ATOM      4  C   UNL     1     -53.015 -40.102 -77.108  0.00  0.00    +0.000 A 
ATOM      5 BR   UNL     1     -53.255 -38.536 -78.151  0.00  0.00    +0.000 Br
ATOM      6  C   UNL     1     -51.754 -40.317 -76.535  0.00  0.00    +0.000 A 
ATOM      7  C   UNL     1     -51.518 -41.485 -75.800  0.00  0.00    +0.000 A 
ATOM      8  C   UNL     1     -52.539 -42.418 -75.617  0.00  0.00    +0.000 A 
ATOM      9 CL   UNL     1     -52.126 -43.858 -74.758  0.00  0.00    +0.000 Cl
ATOM     10  C   UNL     1     -53.807 -42.173 -76.166  0.00  0.00    +0.000 A 
ATOM     11  C   UNL     1     -54.969 -43.058 -75.954  0.00  0.00    +0.000 A 
ATOM     12  O   UNL     1     -55.099 -43.716 -74.929  0.00  0.00    +0.000 OA
ATOM     13  C   UNL     1     -56.042 -43.073 -77.002  0.00  0.00    +0.000 A 
ATOM     14  H   UNL     1     -55.438 -40.120 -78.176  0.00  0.00    +0.000 HD
ENDROOT
BRANCH   1  15
ATOM     15  S   UNL     1     -57.445 -41.598 -78.934  0.00  0.00    +0.000 S 
ATOM     16  O   UNL     1     -58.657 -42.403 -78.550  0.00  0.00    +0.000 OA
BRANCH  15  17
ATOM     17  C   UNL     1     -56.776 -42.319 -80.461  0.00  0.00    +0.000 C 
BRANCH  17  21
ATOM     18  C   UNL     1     -52.146 -42.003 -82.624  0.00  0.00    +0.000 C 
ATOM     19  C   UNL     1     -53.448 -41.892 -81.942  0.00  0.00    +0.000 A 
ATOM     20  C   UNL     1     -54.544 -42.711 -81.811  0.00  0.00    +0.000 A 
ATOM     21  C   UNL     1     -55.407 -42.013 -80.937  0.00  0.00    +0.000 A 
ATOM     22  N   UNL     1     -54.888 -40.814 -80.620  0.00  0.00    +0.000 NA
ATOM     23  O   UNL     1     -53.663 -40.744 -81.250  0.00  0.00    +0.000 OA
ENDBRANCH  17  21
ENDBRANCH  15  17
ENDBRANCH   1  15
BRANCH  13  24
ATOM     24  C   UNL     1     -56.529 -44.440 -77.341  0.00  0.00    +0.000 C 
ATOM     25  O   UNL     1     -57.653 -44.793 -77.030  0.00  0.00    +0.000 OA
BRANCH  24  26
ATOM     26  C   UNL     1     -55.643 -45.342 -78.102  0.00  0.00    +0.000 C 
ATOM     27  C   UNL     1     -56.004 -46.800 -78.231  0.00  0.00    +0.000 C 
ATOM     28  C   UNL     1     -54.819 -46.400 -77.406  0.00  0.00    +0.000 C 
ENDBRANCH  24  26
ENDBRANCH  13  24
TORSDOF 5
ENDMDL
MODEL 8
REMARK VINA RESULT:    -6.072      3.973      5.000
REMARK INTER + INTRA:          -8.789
REMARK INTER:                  -7.819
REMARK INTRA:                  -0.971
REMARK UNBOUND:                -0.943
REMARK  Name = 
REMARK  6 active torsions:
REMARK  status: ('A' for Active; 'I' for Inactive)
REMARK    1  A    between atoms: C_1  and  C_2
REMARK    2  A    between atoms: C_4  and  C_5
REMARK    3  A    between atoms: C_5  and  S_6
REMARK    4  A    between atoms: S_6  and  C_8
REMARK    5  A    between atoms: C_20  and  C_21
REMARK    6  A    between atoms: C_21  and  C_23
REMARK                            x       y       z     vdW  Elec       q    Type
REMARK                         _______ _______ _______ _____ _____    ______ ____
ROOT
ATOM      1  C   UNL     1     -54.355 -43.196 -78.846  0.00  0.00    +0.000 A 
ATOM      2  N   UNL     1     -54.766 -44.075 -79.866  0.00  0.00    +0.000 N 
ATOM      3  C   UNL     1     -54.058 -44.138 -81.097  0.00  0.00    +0.000 A 
ATOM      4  C   UNL     1     -54.153 -45.227 -81.984  0.00  0.00    +0.000 A 
ATOM      5 BR   UNL     1     -55.110 -46.795 -81.509  0.00  0.00    +0.000 Br
ATOM      6  C   UNL     1     -53.524 -45.199 -83.237  0.00  0.00    +0.000 A 
ATOM      7  C   UNL     1     -52.765 -44.083 -83.606  0.00  0.00    +0.000 A 
ATOM      8  C   UNL     1     -52.655 -42.992 -82.743  0.00  0.00    +0.000 A 
ATOM      9 CL   UNL     1     -51.637 -41.697 -83.261  0.00  0.00    +0.000 Cl
ATOM     10  C   UNL     1     -53.318 -43.017 -81.507  0.00  0.00    +0.000 A 
ATOM     11  C   UNL     1     -53.329 -41.879 -80.568  0.00  0.00    +0.000 A 
ATOM     12  O   UNL     1     -53.260 -40.720 -80.958  0.00  0.00    +0.000 OA
ATOM     13  C   UNL     1     -53.511 -42.173 -79.108  0.00  0.00    +0.000 A 
ATOM     14  H   UNL     1     -55.040 -44.997 -79.499  0.00  0.00    +0.000 HD
ENDROOT
BRANCH   1  15
ATOM     15  S   UNL     1     -54.696 -43.843 -77.188  0.00  0.00    +0.000 S 
ATOM     16  O   UNL     1     -54.780 -45.333 -77.384  0.00  0.00    +0.000 OA
BRANCH  15  17
ATOM     17  C   UNL     1     -56.331 -43.274 -76.639  0.00  0.00    +0.000 C 
BRANCH  17  21
ATOM     18  C   UNL     1     -57.000 -40.620 -72.311  0.00  0.00    +0.000 C 
ATOM     19  C   UNL     1     -56.895 -41.548 -73.453  0.00  0.00    +0.000 A 
ATOM     20  C   UNL     1     -56.500 -41.427 -74.764  0.00  0.00    +0.000 A 
ATOM     21  C   UNL     1     -56.558 -42.742 -75.275  0.00  0.00    +0.000 A 
ATOM     22  N   UNL     1     -57.029 -43.590 -74.344  0.00  0.00    +0.000 NA
ATOM     23  O   UNL     1     -57.236 -42.838 -73.206  0.00  0.00    +0.000 OA
ENDBRANCH  17  21
ENDBRANCH  15  17
ENDBRANCH   1  15
BRANCH  13  24
ATOM     24  C   UNL     1     -52.596 -41.398 -78.223  0.00  0.00    +0.000 C 
ATOM     25  O   UNL     1     -51.395 -41.603 -78.241  0.00  0.00    +0.000 OA
BRANCH  24  26
ATOM     26  C   UNL     1     -53.164 -40.347 -77.359  0.00  0.00    +0.000 C 
ATOM     27  C   UNL     1     -54.514 -39.763 -77.691  0.00  0.00    +0.000 C 
ATOM     28  C   UNL     1     -53.284 -38.919 -77.838  0.00  0.00    +0.000 C 
ENDBRANCH  24  26
ENDBRANCH  13  24
TORSDOF 5
ENDMDL
MODEL 9
REMARK VINA RESULT:    -6.050     11.096     13.679
REMARK INTER + INTRA:          -8.761
REMARK INTER:                  -7.769
REMARK INTRA:                  -0.992
REMARK UNBOUND:                -0.943
REMARK  Name = 
REMARK  6 active torsions:
REMARK  status: ('A' for Active; 'I' for Inactive)
REMARK    1  A    between atoms: C_1  and  C_2
REMARK    2  A    between atoms: C_4  and  C_5
REMARK    3  A    between atoms: C_5  and  S_6
REMARK    4  A    between atoms: S_6  and  C_8
REMARK    5  A    between atoms: C_20  and  C_21
REMARK    6  A    between atoms: C_21  and  C_23
REMARK                            x       y       z     vdW  Elec       q    Type
REMARK                         _______ _______ _______ _____ _____    ______ ____
ROOT
ATOM      1  C   UNL     1     -57.770 -40.687 -62.980  0.00  0.00    +0.000 A 
ATOM      2  N   UNL     1     -57.245 -39.422 -62.651  0.00  0.00    +0.000 N 
ATOM      3  C   UNL     1     -56.083 -38.928 -63.305  0.00  0.00    +0.000 A 
ATOM      4  C   UNL     1     -55.734 -37.564 -63.323  0.00  0.00    +0.000 A 
ATOM      5 BR   UNL     1     -56.900 -36.245 -62.618  0.00  0.00    +0.000 Br
ATOM      6  C   UNL     1     -54.524 -37.133 -63.884  0.00  0.00    +0.000 A 
ATOM      7  C   UNL     1     -53.657 -38.068 -64.462  0.00  0.00    +0.000 A 
ATOM      8  C   UNL     1     -53.982 -39.425 -64.457  0.00  0.00    +0.000 A 
ATOM      9 CL   UNL     1     -52.882 -40.487 -65.258  0.00  0.00    +0.000 Cl
ATOM     10  C   UNL     1     -55.180 -39.847 -63.861  0.00  0.00    +0.000 A 
ATOM     11  C   UNL     1     -55.568 -41.265 -63.732  0.00  0.00    +0.000 A 
ATOM     12  O   UNL     1     -54.733 -42.154 -63.621  0.00  0.00    +0.000 OA
ATOM     13  C   UNL     1     -57.030 -41.591 -63.660  0.00  0.00    +0.000 A 
ATOM     14  H   UNL     1     -57.983 -38.715 -62.526  0.00  0.00    +0.000 HD
ENDROOT
BRANCH   1  15
ATOM     15  S   UNL     1     -59.572 -40.759 -62.809  0.00  0.00    +0.000 S 
ATOM     16  O   UNL     1     -59.949 -39.399 -62.287  0.00  0.00    +0.000 OA
BRANCH  15  17
ATOM     17  C   UNL     1     -60.012 -41.973 -61.530  0.00  0.00    +0.000 C 
BRANCH  17  21
ATOM     18  C   UNL     1     -56.780 -42.371 -57.578  0.00  0.00    +0.000 C 
ATOM     19  C   UNL     1     -57.846 -42.167 -58.577  0.00  0.00    +0.000 A 
ATOM     20  C   UNL     1     -57.945 -42.352 -59.936  0.00  0.00    +0.000 A 
ATOM     21  C   UNL     1     -59.290 -42.045 -60.239  0.00  0.00    +0.000 A 
ATOM     22  N   UNL     1     -59.939 -41.632 -59.135  0.00  0.00    +0.000 NA
ATOM     23  O   UNL     1     -59.032 -41.713 -58.100  0.00  0.00    +0.000 OA
ENDBRANCH  17  21
ENDBRANCH  15  17
ENDBRANCH   1  15
BRANCH  13  24
ATOM     24  C   UNL     1     -57.426 -42.760 -64.496  0.00  0.00    +0.000 C 
ATOM     25  O   UNL     1     -57.469 -43.879 -64.015  0.00  0.00    +0.000 OA
BRANCH  24  26
ATOM     26  C   UNL     1     -57.809 -42.531 -65.902  0.00  0.00    +0.000 C 
ATOM     27  C   UNL     1     -57.883 -43.701 -66.849  0.00  0.00    +0.000 C 
ATOM     28  C   UNL     1     -56.805 -42.674 -67.021  0.00  0.00    +0.000 C 
ENDBRANCH  24  26
ENDBRANCH  13  24
TORSDOF 5
ENDMDL
MODEL 10
REMARK VINA RESULT:    -6.035      3.213      5.417
REMARK INTER + INTRA:          -8.742
REMARK INTER:                  -8.064
REMARK INTRA:                  -0.678
REMARK UNBOUND:                -0.943
REMARK  Name = 
REMARK  6 active torsions:
REMARK  status: ('A' for Active; 'I' for Inactive)
REMARK    1  A    between atoms: C_1  and  C_2
REMARK    2  A    between atoms: C_4  and  C_5
REMARK    3  A    between atoms: C_5  and  S_6
REMARK    4  A    between atoms: S_6  and  C_8
REMARK    5  A    between atoms: C_20  and  C_21
REMARK    6  A    between atoms: C_21  and  C_23
REMARK                            x       y       z     vdW  Elec       q    Type
REMARK                         _______ _______ _______ _____ _____    ______ ____
ROOT
ATOM      1  C   UNL     1     -56.881 -41.629 -79.052  0.00  0.00    +0.000 A 
ATOM      2  N   UNL     1     -56.025 -41.808 -80.155  0.00  0.00    +0.000 N 
ATOM      3  C   UNL     1     -54.622 -41.943 -79.968  0.00  0.00    +0.000 A 
ATOM      4  C   UNL     1     -53.768 -42.501 -80.938  0.00  0.00    +0.000 A 
ATOM      5 BR   UNL     1     -54.463 -43.289 -82.517  0.00  0.00    +0.000 Br
ATOM      6  C   UNL     1     -52.378 -42.515 -80.759  0.00  0.00    +0.000 A 
ATOM      7  C   UNL     1     -51.826 -41.990 -79.584  0.00  0.00    +0.000 A 
ATOM      8  C   UNL     1     -52.652 -41.433 -78.608  0.00  0.00    +0.000 A 
ATOM      9 CL   UNL     1     -51.881 -40.879 -77.166  0.00  0.00    +0.000 Cl
ATOM     10  C   UNL     1     -54.039 -41.393 -78.815  0.00  0.00    +0.000 A 
ATOM     11  C   UNL     1     -54.983 -40.749 -77.881  0.00  0.00    +0.000 A 
ATOM     12  O   UNL     1     -54.655 -39.789 -77.194  0.00  0.00    +0.000 OA
ATOM     13  C   UNL     1     -56.395 -41.254 -77.848  0.00  0.00    +0.000 A 
ATOM     14  H   UNL     1     -56.415 -42.460 -80.849  0.00  0.00    +0.000 HD
ENDROOT
BRANCH   1  15
ATOM     15  S   UNL     1     -58.516 -42.367 -79.311  0.00  0.00    +0.000 S 
ATOM     16  O   UNL     1     -58.689 -42.364 -80.806  0.00  0.00    +0.000 OA
BRANCH  15  17
ATOM     17  C   UNL     1     -59.791 -41.277 -78.614  0.00  0.00    +0.000 C 
BRANCH  17  21
ATOM     18  C   UNL     1     -61.616 -37.609 -81.685  0.00  0.00    +0.000 C 
ATOM     19  C   UNL     1     -61.094 -38.517 -80.648  0.00  0.00    +0.000 A 
ATOM     20  C   UNL     1     -60.794 -39.858 -80.598  0.00  0.00    +0.000 A 
ATOM     21  C   UNL     1     -60.240 -40.051 -79.313  0.00  0.00    +0.000 A 
ATOM     22  N   UNL     1     -60.272 -38.906 -78.609  0.00  0.00    +0.000 NA
ATOM     23  O   UNL     1     -60.806 -37.950 -79.449  0.00  0.00    +0.000 OA
ENDBRANCH  17  21
ENDBRANCH  15  17
ENDBRANCH   1  15
BRANCH  13  24
ATOM     24  C   UNL     1     -56.943 -41.411 -76.471  0.00  0.00    +0.000 C 
ATOM     25  O   UNL     1     -57.636 -40.538 -75.976  0.00  0.00    +0.000 OA
BRANCH  24  26
ATOM     26  C   UNL     1     -56.673 -42.660 -75.735  0.00  0.00    +0.000 C 
ATOM     27  C   UNL     1     -57.360 -42.908 -74.417  0.00  0.00    +0.000 C 
ATOM     28  C   UNL     1     -55.883 -42.656 -74.448  0.00  0.00    +0.000 C 
ENDBRANCH  24  26
ENDBRANCH  13  24
TORSDOF 5
ENDMDL
MODEL 11
REMARK VINA RESULT:    -5.927      3.829      5.642
REMARK INTER + INTRA:          -8.602
REMARK INTER:                  -7.640
REMARK INTRA:                  -0.962
REMARK UNBOUND:                -0.943
REMARK  Name = 
REMARK  6 active torsions:
REMARK  status: ('A' for Active; 'I' for Inactive)
REMARK    1  A    between atoms: C_1  and  C_2
REMARK    2  A    between atoms: C_4  and  C_5
REMARK    3  A    between atoms: C_5  and  S_6
REMARK    4  A    between atoms: S_6  and  C_8
REMARK    5  A    between atoms: C_20  and  C_21
REMARK    6  A    between atoms: C_21  and  C_23
REMARK                            x       y       z     vdW  Elec       q    Type
REMARK                         _______ _______ _______ _____ _____    ______ ____
ROOT
ATOM      1  C   UNL     1     -57.064 -42.616 -77.164  0.00  0.00    +0.000 A 
ATOM      2  N   UNL     1     -58.066 -43.407 -77.758  0.00  0.00    +0.000 N 
ATOM      3  C   UNL     1     -58.019 -44.825 -77.664  0.00  0.00    +0.000 A 
ATOM      4  C   UNL     1     -59.142 -45.647 -77.876  0.00  0.00    +0.000 A 
ATOM      5 BR   UNL     1     -60.867 -44.900 -78.131  0.00  0.00    +0.000 Br
ATOM      6  C   UNL     1     -59.028 -47.044 -77.882  0.00  0.00    +0.000 A 
ATOM      7  C   UNL     1     -57.783 -47.638 -77.646  0.00  0.00    +0.000 A 
ATOM      8  C   UNL     1     -56.656 -46.845 -77.431  0.00  0.00    +0.000 A 
ATOM      9 CL   UNL     1     -55.183 -47.673 -77.078  0.00  0.00    +0.000 Cl
ATOM     10  C   UNL     1     -56.777 -45.447 -77.463  0.00  0.00    +0.000 A 
ATOM     11  C   UNL     1     -55.629 -44.529 -77.333  0.00  0.00    +0.000 A 
ATOM     12  O   UNL     1     -54.508 -44.840 -77.715  0.00  0.00    +0.000 OA
ATOM     13  C   UNL     1     -55.885 -43.156 -76.786  0.00  0.00    +0.000 A 
ATOM     14  H   UNL     1     -59.007 -43.014 -77.619  0.00  0.00    +0.000 HD
ENDROOT
BRANCH   1  15
ATOM     15  S   UNL     1     -57.691 -41.017 -76.585  0.00  0.00    +0.000 S 
ATOM     16  O   UNL     1     -56.760 -40.010 -77.203  0.00  0.00    +0.000 OA
BRANCH  15  17
ATOM     17  C   UNL     1     -57.495 -40.905 -74.783  0.00  0.00    +0.000 C 
BRANCH  17  21
ATOM     18  C   UNL     1     -60.850 -41.914 -71.048  0.00  0.00    +0.000 C 
ATOM     19  C   UNL     1     -59.998 -41.759 -72.241  0.00  0.00    +0.000 A 
ATOM     20  C   UNL     1     -58.927 -40.961 -72.568  0.00  0.00    +0.000 A 
ATOM     21  C   UNL     1     -58.532 -41.405 -73.850  0.00  0.00    +0.000 A 
ATOM     22  N   UNL     1     -59.362 -42.364 -74.294  0.00  0.00    +0.000 NA
ATOM     23  O   UNL     1     -60.276 -42.583 -73.283  0.00  0.00    +0.000 OA
ENDBRANCH  17  21
ENDBRANCH  15  17
ENDBRANCH   1  15
BRANCH  13  24
ATOM     24  C   UNL     1     -54.871 -42.710 -75.788  0.00  0.00    +0.000 C 
ATOM     25  O   UNL     1     -54.816 -43.229 -74.686  0.00  0.00    +0.000 OA
BRANCH  24  26
ATOM     26  C   UNL     1     -53.906 -41.663 -76.173  0.00  0.00    +0.000 C 
ATOM     27  C   UNL     1     -53.525 -41.504 -77.623  0.00  0.00    +0.000 C 
ATOM     28  C   UNL     1     -52.514 -42.016 -76.643  0.00  0.00    +0.000 C 
ENDBRANCH  24  26
ENDBRANCH  13  24
TORSDOF 5
ENDMDL
MODEL 12
REMARK VINA RESULT:    -5.890      4.613      7.416
REMARK INTER + INTRA:          -8.554
REMARK INTER:                  -7.744
REMARK INTRA:                  -0.811
REMARK UNBOUND:                -0.943
REMARK  Name = 
REMARK  6 active torsions:
REMARK  status: ('A' for Active; 'I' for Inactive)
REMARK    1  A    between atoms: C_1  and  C_2
REMARK    2  A    between atoms: C_4  and  C_5
REMARK    3  A    between atoms: C_5  and  S_6
REMARK    4  A    between atoms: S_6  and  C_8
REMARK    5  A    between atoms: C_20  and  C_21
REMARK    6  A    between atoms: C_21  and  C_23
REMARK                            x       y       z     vdW  Elec       q    Type
REMARK                         _______ _______ _______ _____ _____    ______ ____
ROOT
ATOM      1  C   UNL     1     -54.469 -43.273 -78.004  0.00  0.00    +0.000 A 
ATOM      2  N   UNL     1     -54.748 -44.182 -79.043  0.00  0.00    +0.000 N 
ATOM      3  C   UNL     1     -55.334 -45.446 -78.760  0.00  0.00    +0.000 A 
ATOM      4  C   UNL     1     -55.989 -46.224 -79.734  0.00  0.00    +0.000 A 
ATOM      5 BR   UNL     1     -56.296 -45.551 -81.480  0.00  0.00    +0.000 Br
ATOM      6  C   UNL     1     -56.456 -47.512 -79.439  0.00  0.00    +0.000 A 
ATOM      7  C   UNL     1     -56.295 -48.028 -78.148  0.00  0.00    +0.000 A 
ATOM      8  C   UNL     1     -55.652 -47.275 -77.165  0.00  0.00    +0.000 A 
ATOM      9 CL   UNL     1     -55.569 -47.971 -75.587  0.00  0.00    +0.000 Cl
ATOM     10  C   UNL     1     -55.157 -46.001 -77.483  0.00  0.00    +0.000 A 
ATOM     11  C   UNL     1     -54.390 -45.168 -76.537  0.00  0.00    +0.000 A 
ATOM     12  O   UNL     1     -53.683 -45.663 -75.668  0.00  0.00    +0.000 OA
ATOM     13  C   UNL     1     -54.433 -43.679 -76.716  0.00  0.00    +0.000 A 
ATOM     14  H   UNL     1     -55.146 -43.717 -79.871  0.00  0.00    +0.000 HD
ENDROOT
BRANCH   1  15
ATOM     15  S   UNL     1     -54.623 -41.545 -78.530  0.00  0.00    +0.000 S 
ATOM     16  O   UNL     1     -56.062 -41.203 -78.256  0.00  0.00    +0.000 OA
BRANCH  15  17
ATOM     17  C   UNL     1     -54.370 -41.433 -80.326  0.00  0.00    +0.000 C 
BRANCH  17  21
ATOM     18  C   UNL     1     -50.350 -42.553 -83.293  0.00  0.00    +0.000 C 
ATOM     19  C   UNL     1     -51.379 -42.273 -82.274  0.00  0.00    +0.000 A 
ATOM     20  C   UNL     1     -52.668 -41.796 -82.307  0.00  0.00    +0.000 A 
ATOM     21  C   UNL     1     -53.107 -41.868 -80.967  0.00  0.00    +0.000 A 
ATOM     22  N   UNL     1     -52.115 -42.296 -80.167  0.00  0.00    +0.000 NA
ATOM     23  O   UNL     1     -51.037 -42.549 -80.990  0.00  0.00    +0.000 OA
ENDBRANCH  17  21
ENDBRANCH  15  17
ENDBRANCH   1  15
BRANCH  13  24
ATOM     24  C   UNL     1     -54.602 -42.927 -75.440  0.00  0.00    +0.000 C 
ATOM     25  O   UNL     1     -53.638 -42.665 -74.742  0.00  0.00    +0.000 OA
BRANCH  24  26
ATOM     26  C   UNL     1     -55.951 -42.464 -75.061  0.00  0.00    +0.000 C 
ATOM     27  C   UNL     1     -56.296 -42.303 -73.603  0.00  0.00    +0.000 C 
ATOM     28  C   UNL     1     -56.941 -43.395 -74.401  0.00  0.00    +0.000 C 
ENDBRANCH  24  26
ENDBRANCH  13  24
TORSDOF 5
ENDMDL
MODEL 13
REMARK VINA RESULT:    -5.798      4.413      8.030
REMARK INTER + INTRA:          -8.436
REMARK INTER:                  -8.000
REMARK INTRA:                  -0.435
REMARK UNBOUND:                -0.943
REMARK  Name = 
REMARK  6 active torsions:
REMARK  status: ('A' for Active; 'I' for Inactive)
REMARK    1  A    between atoms: C_1  and  C_2
REMARK    2  A    between atoms: C_4  and  C_5
REMARK    3  A    between atoms: C_5  and  S_6
REMARK    4  A    between atoms: S_6  and  C_8
REMARK    5  A    between atoms: C_20  and  C_21
REMARK    6  A    between atoms: C_21  and  C_23
REMARK                            x       y       z     vdW  Elec       q    Type
REMARK                         _______ _______ _______ _____ _____    ______ ____
ROOT
ATOM      1  C   UNL     1     -54.452 -41.483 -78.979  0.00  0.00    +0.000 A 
ATOM      2  N   UNL     1     -55.769 -41.930 -79.198  0.00  0.00    +0.000 N 
ATOM      3  C   UNL     1     -56.783 -41.698 -78.228  0.00  0.00    +0.000 A 
ATOM      4  C   UNL     1     -58.157 -41.755 -78.525  0.00  0.00    +0.000 A 
ATOM      5 BR   UNL     1     -58.766 -41.972 -80.308  0.00  0.00    +0.000 Br
ATOM      6  C   UNL     1     -59.123 -41.629 -77.516  0.00  0.00    +0.000 A 
ATOM      7  C   UNL     1     -58.718 -41.416 -76.193  0.00  0.00    +0.000 A 
ATOM      8  C   UNL     1     -57.361 -41.354 -75.875  0.00  0.00    +0.000 A 
ATOM      9 CL   UNL     1     -56.968 -41.016 -74.228  0.00  0.00    +0.000 Cl
ATOM     10  C   UNL     1     -56.405 -41.518 -76.888  0.00  0.00    +0.000 A 
ATOM     11  C   UNL     1     -54.951 -41.553 -76.635  0.00  0.00    +0.000 A 
ATOM     12  O   UNL     1     -54.490 -41.974 -75.581  0.00  0.00    +0.000 OA
ATOM     13  C   UNL     1     -54.034 -41.129 -77.744  0.00  0.00    +0.000 A 
ATOM     14  H   UNL     1     -56.079 -41.770 -80.167  0.00  0.00    +0.000 HD
ENDROOT
BRANCH   1  15
ATOM     15  S   UNL     1     -53.607 -41.027 -80.516  0.00  0.00    +0.000 S 
ATOM     16  O   UNL     1     -53.995 -39.591 -80.740  0.00  0.00    +0.000 OA
BRANCH  15  17
ATOM     17  C   UNL     1     -54.289 -41.996 -81.894  0.00  0.00    +0.000 C 
BRANCH  17  21
ATOM     18  C   UNL     1     -55.083 -39.950 -86.520  0.00  0.00    +0.000 C 
ATOM     19  C   UNL     1     -54.648 -40.543 -85.242  0.00  0.00    +0.000 A 
ATOM     20  C   UNL     1     -55.275 -40.861 -84.060  0.00  0.00    +0.000 A 
ATOM     21  C   UNL     1     -54.276 -41.492 -83.286  0.00  0.00    +0.000 A 
ATOM     22  N   UNL     1     -53.102 -41.489 -83.940  0.00  0.00    +0.000 NA
ATOM     23  O   UNL     1     -53.340 -40.896 -85.162  0.00  0.00    +0.000 OA
ENDBRANCH  17  21
ENDBRANCH  15  17
ENDBRANCH   1  15
BRANCH  13  24
ATOM     24  C   UNL     1     -52.919 -40.248 -77.295  0.00  0.00    +0.000 C 
ATOM     25  O   UNL     1     -53.119 -39.071 -77.051  0.00  0.00    +0.000 OA
BRANCH  24  26
ATOM     26  C   UNL     1     -51.579 -40.836 -77.105  0.00  0.00    +0.000 C 
ATOM     27  C   UNL     1     -51.299 -41.660 -75.874  0.00  0.00    +0.000 C 
ATOM     28  C   UNL     1     -50.643 -40.323 -76.037  0.00  0.00    +0.000 C 
ENDBRANCH  24  26
ENDBRANCH  13  24
TORSDOF 5
ENDMDL
MODEL 14
REMARK VINA RESULT:    -5.696      3.740      5.390
REMARK INTER + INTRA:          -8.303
REMARK INTER:                  -7.528
REMARK INTRA:                  -0.775
REMARK UNBOUND:                -0.943
REMARK  Name = 
REMARK  6 active torsions:
REMARK  status: ('A' for Active; 'I' for Inactive)
REMARK    1  A    between atoms: C_1  and  C_2
REMARK    2  A    between atoms: C_4  and  C_5
REMARK    3  A    between atoms: C_5  and  S_6
REMARK    4  A    between atoms: S_6  and  C_8
REMARK    5  A    between atoms: C_20  and  C_21
REMARK    6  A    between atoms: C_21  and  C_23
REMARK                            x       y       z     vdW  Elec       q    Type
REMARK                         _______ _______ _______ _____ _____    ______ ____
ROOT
ATOM      1  C   UNL     1     -56.181 -44.065 -78.032  0.00  0.00    +0.000 A 
ATOM      2  N   UNL     1     -55.452 -45.098 -77.409  0.00  0.00    +0.000 N 
ATOM      3  C   UNL     1     -54.415 -44.795 -76.484  0.00  0.00    +0.000 A 
ATOM      4  C   UNL     1     -53.922 -45.727 -75.552  0.00  0.00    +0.000 A 
ATOM      5 BR   UNL     1     -54.739 -47.425 -75.339  0.00  0.00    +0.000 Br
ATOM      6  C   UNL     1     -52.825 -45.423 -74.734  0.00  0.00    +0.000 A 
ATOM      7  C   UNL     1     -52.223 -44.162 -74.822  0.00  0.00    +0.000 A 
ATOM      8  C   UNL     1     -52.696 -43.221 -75.737  0.00  0.00    +0.000 A 
ATOM      9 CL   UNL     1     -51.933 -41.673 -75.717  0.00  0.00    +0.000 Cl
ATOM     10  C   UNL     1     -53.772 -43.551 -76.576  0.00  0.00    +0.000 A 
ATOM     11  C   UNL     1     -54.284 -42.654 -77.630  0.00  0.00    +0.000 A 
ATOM     12  O   UNL     1     -53.555 -41.861 -78.212  0.00  0.00    +0.000 OA
ATOM     13  C   UNL     1     -55.721 -42.794 -78.035  0.00  0.00    +0.000 A 
ATOM     14  H   UNL     1     -56.055 -45.878 -77.115  0.00  0.00    +0.000 HD
ENDROOT
BRANCH   1  15
ATOM     15  S   UNL     1     -57.896 -44.536 -78.379  0.00  0.00    +0.000 S 
ATOM     16  O   UNL     1     -58.704 -43.747 -77.386  0.00  0.00    +0.000 OA
BRANCH  15  17
ATOM     17  C   UNL     1     -58.131 -46.296 -77.996  0.00  0.00    +0.000 C 
BRANCH  17  21
ATOM     18  C   UNL     1     -62.330 -49.159 -78.619  0.00  0.00    +0.000 C 
ATOM     19  C   UNL     1     -61.178 -48.239 -78.621  0.00  0.00    +0.000 A 
ATOM     20  C   UNL     1     -60.153 -47.971 -77.745  0.00  0.00    +0.000 A 
ATOM     21  C   UNL     1     -59.341 -47.036 -78.424  0.00  0.00    +0.000 A 
ATOM     22  N   UNL     1     -59.887 -46.709 -79.608  0.00  0.00    +0.000 NA
ATOM     23  O   UNL     1     -61.035 -47.465 -79.727  0.00  0.00    +0.000 OA
ENDBRANCH  17  21
ENDBRANCH  15  17
ENDBRANCH   1  15
BRANCH  13  24
ATOM     24  C   UNL     1     -56.427 -41.492 -78.200  0.00  0.00    +0.000 C 
ATOM     25  O   UNL     1     -56.955 -41.203 -79.261  0.00  0.00    +0.000 OA
BRANCH  24  26
ATOM     26  C   UNL     1     -56.516 -40.580 -77.045  0.00  0.00    +0.000 C 
ATOM     27  C   UNL     1     -56.916 -41.126 -75.698  0.00  0.00    +0.000 C 
ATOM     28  C   UNL     1     -57.849 -40.215 -76.436  0.00  0.00    +0.000 C 
ENDBRANCH  24  26
ENDBRANCH  13  24
TORSDOF 5
ENDMDL
MODEL 15
REMARK VINA RESULT:    -5.652      3.371      4.893
REMARK INTER + INTRA:          -8.246
REMARK INTER:                  -7.372
REMARK INTRA:                  -0.874
REMARK UNBOUND:                -0.943
REMARK  Name = 
REMARK  6 active torsions:
REMARK  status: ('A' for Active; 'I' for Inactive)
REMARK    1  A    between atoms: C_1  and  C_2
REMARK    2  A    between atoms: C_4  and  C_5
REMARK    3  A    between atoms: C_5  and  S_6
REMARK    4  A    between atoms: S_6  and  C_8
REMARK    5  A    between atoms: C_20  and  C_21
REMARK    6  A    between atoms: C_21  and  C_23
REMARK                            x       y       z     vdW  Elec       q    Type
REMARK                         _______ _______ _______ _____ _____    ______ ____
ROOT
ATOM      1  C   UNL     1     -56.421 -41.345 -79.080  0.00  0.00    +0.000 A 
ATOM      2  N   UNL     1     -55.628 -41.495 -80.234  0.00  0.00    +0.000 N 
ATOM      3  C   UNL     1     -54.244 -41.800 -80.126  0.00  0.00    +0.000 A 
ATOM      4  C   UNL     1     -53.491 -42.338 -81.187  0.00  0.00    +0.000 A 
ATOM      5 BR   UNL     1     -54.323 -42.870 -82.806  0.00  0.00    +0.000 Br
ATOM      6  C   UNL     1     -52.106 -42.521 -81.074  0.00  0.00    +0.000 A 
ATOM      7  C   UNL     1     -51.459 -42.189 -79.877  0.00  0.00    +0.000 A 
ATOM      8  C   UNL     1     -52.185 -41.656 -78.812  0.00  0.00    +0.000 A 
ATOM      9 CL   UNL     1     -51.307 -41.348 -77.356  0.00  0.00    +0.000 Cl
ATOM     10  C   UNL     1     -53.565 -41.444 -78.950  0.00  0.00    +0.000 A 
ATOM     11  C   UNL     1     -54.398 -40.808 -77.911  0.00  0.00    +0.000 A 
ATOM     12  O   UNL     1     -53.942 -39.969 -77.144  0.00  0.00    +0.000 OA
ATOM     13  C   UNL     1     -55.856 -41.158 -77.867  0.00  0.00    +0.000 A 
ATOM     14  H   UNL     1     -56.113 -42.022 -80.973  0.00  0.00    +0.000 HD
ENDROOT
BRANCH   1  15
ATOM     15  S   UNL     1     -58.136 -41.870 -79.340  0.00  0.00    +0.000 S 
ATOM     16  O   UNL     1     -58.955 -40.811 -78.654  0.00  0.00    +0.000 OA
BRANCH  15  17
ATOM     17  C   UNL     1     -58.430 -43.436 -78.467  0.00  0.00    +0.000 C 
BRANCH  17  21
ATOM     18  C   UNL     1     -62.870 -43.922 -75.962  0.00  0.00    +0.000 C 
ATOM     19  C   UNL     1     -61.678 -43.909 -76.831  0.00  0.00    +0.000 A 
ATOM     20  C   UNL     1     -60.473 -43.248 -76.809  0.00  0.00    +0.000 A 
ATOM     21  C   UNL     1     -59.755 -43.781 -77.903  0.00  0.00    +0.000 A 
ATOM     22  N   UNL     1     -60.515 -44.658 -78.582  0.00  0.00    +0.000 NA
ATOM     23  O   UNL     1     -61.715 -44.735 -77.907  0.00  0.00    +0.000 OA
ENDBRANCH  17  21
ENDBRANCH  15  17
ENDBRANCH   1  15
BRANCH  13  24
ATOM     24  C   UNL     1     -56.371 -41.403 -76.490  0.00  0.00    +0.000 C 
ATOM     25  O   UNL     1     -57.093 -40.587 -75.944  0.00  0.00    +0.000 OA
BRANCH  24  26
ATOM     26  C   UNL     1     -56.031 -42.672 -75.819  0.00  0.00    +0.000 C 
ATOM     27  C   UNL     1     -56.259 -42.810 -74.336  0.00  0.00    +0.000 C 
ATOM     28  C   UNL     1     -54.860 -42.766 -74.870  0.00  0.00    +0.000 C 
ENDBRANCH  24  26
ENDBRANCH  13  24
TORSDOF 5
ENDMDL
MODEL 16
REMARK VINA RESULT:    -5.644      4.043      5.696
REMARK INTER + INTRA:          -8.237
REMARK INTER:                  -7.025
REMARK INTRA:                  -1.212
REMARK UNBOUND:                -0.943
REMARK  Name = 
REMARK  6 active torsions:
REMARK  status: ('A' for Active; 'I' for Inactive)
REMARK    1  A    between atoms: C_1  and  C_2
REMARK    2  A    between atoms: C_4  and  C_5
REMARK    3  A    between atoms: C_5  and  S_6
REMARK    4  A    between atoms: S_6  and  C_8
REMARK    5  A    between atoms: C_20  and  C_21
REMARK    6  A    between atoms: C_21  and  C_23
REMARK                            x       y       z     vdW  Elec       q    Type
REMARK                         _______ _______ _______ _____ _____    ______ ____
ROOT
ATOM      1  C   UNL     1     -56.417 -44.476 -78.423  0.00  0.00    +0.000 A 
ATOM      2  N   UNL     1     -55.576 -45.406 -77.782  0.00  0.00    +0.000 N 
ATOM      3  C   UNL     1     -54.633 -44.978 -76.808  0.00  0.00    +0.000 A 
ATOM      4  C   UNL     1     -54.052 -45.849 -75.867  0.00  0.00    +0.000 A 
ATOM      5 BR   UNL     1     -54.630 -47.649 -75.712  0.00  0.00    +0.000 Br
ATOM      6  C   UNL     1     -53.045 -45.409 -74.997  0.00  0.00    +0.000 A 
ATOM      7  C   UNL     1     -52.625 -44.075 -75.042  0.00  0.00    +0.000 A 
ATOM      8  C   UNL     1     -53.187 -43.193 -75.965  0.00  0.00    +0.000 A 
ATOM      9 CL   UNL     1     -52.653 -41.552 -75.892  0.00  0.00    +0.000 Cl
ATOM     10  C   UNL     1     -54.169 -43.654 -76.855  0.00  0.00    +0.000 A 
ATOM     11  C   UNL     1     -54.758 -42.819 -77.920  0.00  0.00    +0.000 A 
ATOM     12  O   UNL     1     -54.125 -41.920 -78.458  0.00  0.00    +0.000 OA
ATOM     13  C   UNL     1     -56.143 -43.153 -78.390  0.00  0.00    +0.000 A 
ATOM     14  H   UNL     1     -56.075 -46.269 -77.525  0.00  0.00    +0.000 HD
ENDROOT
BRANCH   1  15
ATOM     15  S   UNL     1     -58.032 -45.177 -78.853  0.00  0.00    +0.000 S 
ATOM     16  O   UNL     1     -58.584 -45.665 -77.541  0.00  0.00    +0.000 OA
BRANCH  15  17
ATOM     17  C   UNL     1     -57.798 -46.630 -79.919  0.00  0.00    +0.000 C 
BRANCH  17  21
ATOM     18  C   UNL     1     -57.404 -51.463 -78.275  0.00  0.00    +0.000 C 
ATOM     19  C   UNL     1     -57.306 -50.064 -78.730  0.00  0.00    +0.000 A 
ATOM     20  C   UNL     1     -58.199 -49.141 -79.219  0.00  0.00    +0.000 A 
ATOM     21  C   UNL     1     -57.443 -47.957 -79.366  0.00  0.00    +0.000 A 
ATOM     22  N   UNL     1     -56.155 -48.178 -79.050  0.00  0.00    +0.000 NA
ATOM     23  O   UNL     1     -56.075 -49.496 -78.651  0.00  0.00    +0.000 OA
ENDBRANCH  17  21
ENDBRANCH  15  17
ENDBRANCH   1  15
BRANCH  13  24
ATOM     24  C   UNL     1     -57.018 -41.960 -78.570  0.00  0.00    +0.000 C 
ATOM     25  O   UNL     1     -57.163 -41.458 -79.671  0.00  0.00    +0.000 OA
BRANCH  24  26
ATOM     26  C   UNL     1     -57.743 -41.426 -77.401  0.00  0.00    +0.000 C 
ATOM     27  C   UNL     1     -58.312 -40.032 -77.455  0.00  0.00    +0.000 C 
ATOM     28  C   UNL     1     -57.154 -40.326 -76.550  0.00  0.00    +0.000 C 
ENDBRANCH  24  26
ENDBRANCH  13  24
TORSDOF 5
ENDMDL
MODEL 17
REMARK VINA RESULT:    -5.532      4.183      6.283
REMARK INTER + INTRA:          -8.092
REMARK INTER:                  -7.190
REMARK INTRA:                  -0.902
REMARK UNBOUND:                -0.943
REMARK  Name = 
REMARK  6 active torsions:
REMARK  status: ('A' for Active; 'I' for Inactive)
REMARK    1  A    between atoms: C_1  and  C_2
REMARK    2  A    between atoms: C_4  and  C_5
REMARK    3  A    between atoms: C_5  and  S_6
REMARK    4  A    between atoms: S_6  and  C_8
REMARK    5  A    between atoms: C_20  and  C_21
REMARK    6  A    between atoms: C_21  and  C_23
REMARK                            x       y       z     vdW  Elec       q    Type
REMARK                         _______ _______ _______ _____ _____    ______ ____
ROOT
ATOM      1  C   UNL     1     -55.835 -43.841 -77.620  0.00  0.00    +0.000 A 
ATOM      2  N   UNL     1     -55.723 -43.734 -79.020  0.00  0.00    +0.000 N 
ATOM      3  C   UNL     1     -55.001 -42.661 -79.608  0.00  0.00    +0.000 A 
ATOM      4  C   UNL     1     -54.520 -42.692 -80.931  0.00  0.00    +0.000 A 
ATOM      5 BR   UNL     1     -54.649 -44.266 -81.982  0.00  0.00    +0.000 Br
ATOM      6  C   UNL     1     -53.909 -41.570 -81.508  0.00  0.00    +0.000 A 
ATOM      7  C   UNL     1     -53.747 -40.404 -80.750  0.00  0.00    +0.000 A 
ATOM      8  C   UNL     1     -54.214 -40.350 -79.437  0.00  0.00    +0.000 A 
ATOM      9 CL   UNL     1     -53.901 -38.892 -78.565  0.00  0.00    +0.000 Cl
ATOM     10  C   UNL     1     -54.856 -41.468 -78.883  0.00  0.00    +0.000 A 
ATOM     11  C   UNL     1     -55.456 -41.475 -77.535  0.00  0.00    +0.000 A 
ATOM     12  O   UNL     1     -55.920 -40.460 -77.030  0.00  0.00    +0.000 OA
ATOM     13  C   UNL     1     -55.560 -42.788 -76.818  0.00  0.00    +0.000 A 
ATOM     14  H   UNL     1     -55.550 -44.645 -79.467  0.00  0.00    +0.000 HD
ENDROOT
BRANCH   1  15
ATOM     15  S   UNL     1     -55.923 -45.562 -77.057  0.00  0.00    +0.000 S 
ATOM     16  O   UNL     1     -54.488 -46.011 -77.016  0.00  0.00    +0.000 OA
BRANCH  15  17
ATOM     17  C   UNL     1     -56.771 -46.567 -78.311  0.00  0.00    +0.000 C 
BRANCH  17  21
ATOM     18  C   UNL     1     -56.760 -51.660 -78.831  0.00  0.00    +0.000 C 
ATOM     19  C   UNL     1     -56.769 -50.230 -78.471  0.00  0.00    +0.000 A 
ATOM     20  C   UNL     1     -56.660 -49.055 -79.177  0.00  0.00    +0.000 A 
ATOM     21  C   UNL     1     -56.848 -48.042 -78.210  0.00  0.00    +0.000 A 
ATOM     22  N   UNL     1     -56.991 -48.579 -76.986  0.00  0.00    +0.000 NA
ATOM     23  O   UNL     1     -56.942 -49.947 -77.155  0.00  0.00    +0.000 OA
ENDBRANCH  17  21
ENDBRANCH  15  17
ENDBRANCH   1  15
BRANCH  13  24
ATOM     24  C   UNL     1     -55.171 -42.719 -75.381  0.00  0.00    +0.000 C 
ATOM     25  O   UNL     1     -56.015 -42.808 -74.506  0.00  0.00    +0.000 OA
BRANCH  24  26
ATOM     26  C   UNL     1     -53.743 -42.588 -75.036  0.00  0.00    +0.000 C 
ATOM     27  C   UNL     1     -52.697 -42.916 -76.071  0.00  0.00    +0.000 C 
ATOM     28  C   UNL     1     -52.862 -43.804 -74.875  0.00  0.00    +0.000 C 
ENDBRANCH  24  26
ENDBRANCH  13  24
TORSDOF 5
ENDMDL
MODEL 18
REMARK VINA RESULT:    -5.494     12.614     14.349
REMARK INTER + INTRA:          -8.042
REMARK INTER:                  -7.141
REMARK INTRA:                  -0.901
REMARK UNBOUND:                -0.943
REMARK  Name = 
REMARK  6 active torsions:
REMARK  status: ('A' for Active; 'I' for Inactive)
REMARK    1  A    between atoms: C_1  and  C_2
REMARK    2  A    between atoms: C_4  and  C_5
REMARK    3  A    between atoms: C_5  and  S_6
REMARK    4  A    between atoms: S_6  and  C_8
REMARK    5  A    between atoms: C_20  and  C_21
REMARK    6  A    between atoms: C_21  and  C_23
REMARK                            x       y       z     vdW  Elec       q    Type
REMARK                         _______ _______ _______ _____ _____    ______ ____
ROOT
ATOM      1  C   UNL     1     -58.291 -39.696 -62.588  0.00  0.00    +0.000 A 
ATOM      2  N   UNL     1     -57.688 -38.465 -62.263  0.00  0.00    +0.000 N 
ATOM      3  C   UNL     1     -56.497 -38.048 -62.919  0.00  0.00    +0.000 A 
ATOM      4  C   UNL     1     -56.063 -36.709 -62.944  0.00  0.00    +0.000 A 
ATOM      5 BR   UNL     1     -57.144 -35.316 -62.245  0.00  0.00    +0.000 Br
ATOM      6  C   UNL     1     -54.828 -36.358 -63.506  0.00  0.00    +0.000 A 
ATOM      7  C   UNL     1     -54.021 -37.348 -64.079  0.00  0.00    +0.000 A 
ATOM      8  C   UNL     1     -54.432 -38.681 -64.068  0.00  0.00    +0.000 A 
ATOM      9 CL   UNL     1     -53.400 -39.815 -64.863  0.00  0.00    +0.000 Cl
ATOM     10  C   UNL     1     -55.654 -39.025 -63.470  0.00  0.00    +0.000 A 
ATOM     11  C   UNL     1     -56.130 -40.415 -63.335  0.00  0.00    +0.000 A 
ATOM     12  O   UNL     1     -55.353 -41.355 -63.219  0.00  0.00    +0.000 OA
ATOM     13  C   UNL     1     -57.610 -40.648 -63.262  0.00  0.00    +0.000 A 
ATOM     14  H   UNL     1     -58.380 -37.712 -62.142  0.00  0.00    +0.000 HD
ENDROOT
BRANCH   1  15
ATOM     15  S   UNL     1     -60.095 -39.654 -62.417  0.00  0.00    +0.000 S 
ATOM     16  O   UNL     1     -60.409 -38.204 -62.168  0.00  0.00    +0.000 OA
BRANCH  15  17
ATOM     17  C   UNL     1     -60.586 -40.579 -60.932  0.00  0.00    +0.000 C 
BRANCH  17  21
ATOM     18  C   UNL     1     -65.471 -42.111 -60.933  0.00  0.00    +0.000 C 
ATOM     19  C   UNL     1     -64.016 -41.875 -60.902  0.00  0.00    +0.000 A 
ATOM     20  C   UNL     1     -63.209 -40.781 -61.109  0.00  0.00    +0.000 A 
ATOM     21  C   UNL     1     -61.905 -41.243 -60.824  0.00  0.00    +0.000 A 
ATOM     22  N   UNL     1     -61.923 -42.555 -60.531  0.00  0.00    +0.000 NA
ATOM     23  O   UNL     1     -63.245 -42.945 -60.580  0.00  0.00    +0.000 OA
ENDBRANCH  17  21
ENDBRANCH  15  17
ENDBRANCH   1  15
BRANCH  13  24
ATOM     24  C   UNL     1     -58.078 -41.793 -64.093  0.00  0.00    +0.000 C 
ATOM     25  O   UNL     1     -58.046 -41.730 -65.310  0.00  0.00    +0.000 OA
BRANCH  24  26
ATOM     26  C   UNL     1     -58.535 -43.022 -63.418  0.00  0.00    +0.000 C 
ATOM     27  C   UNL     1     -58.203 -43.236 -61.963  0.00  0.00    +0.000 C 
ATOM     28  C   UNL     1     -57.559 -44.098 -63.005  0.00  0.00    +0.000 C 
ENDBRANCH  24  26
ENDBRANCH  13  24
TORSDOF 5
ENDMDL
MODEL 19
REMARK VINA RESULT:    -5.435      4.375      7.161
REMARK INTER + INTRA:          -7.966
REMARK INTER:                  -7.295
REMARK INTRA:                  -0.672
REMARK UNBOUND:                -0.943
REMARK  Name = 
REMARK  6 active torsions:
REMARK  status: ('A' for Active; 'I' for Inactive)
REMARK    1  A    between atoms: C_1  and  C_2
REMARK    2  A    between atoms: C_4  and  C_5
REMARK    3  A    between atoms: C_5  and  S_6
REMARK    4  A    between atoms: S_6  and  C_8
REMARK    5  A    between atoms: C_20  and  C_21
REMARK    6  A    between atoms: C_21  and  C_23
REMARK                            x       y       z     vdW  Elec       q    Type
REMARK                         _______ _______ _______ _____ _____    ______ ____
ROOT
ATOM      1  C   UNL     1     -54.444 -43.128 -77.780  0.00  0.00    +0.000 A 
ATOM      2  N   UNL     1     -54.709 -43.919 -78.914  0.00  0.00    +0.000 N 
ATOM      3  C   UNL     1     -55.335 -45.189 -78.781  0.00  0.00    +0.000 A 
ATOM      4  C   UNL     1     -55.974 -45.846 -79.849  0.00  0.00    +0.000 A 
ATOM      5 BR   UNL     1     -56.204 -44.992 -81.527  0.00  0.00    +0.000 Br
ATOM      6  C   UNL     1     -56.482 -47.144 -79.702  0.00  0.00    +0.000 A 
ATOM      7  C   UNL     1     -56.379 -47.792 -78.466  0.00  0.00    +0.000 A 
ATOM      8  C   UNL     1     -55.752 -47.160 -77.392  0.00  0.00    +0.000 A 
ATOM      9 CL   UNL     1     -55.742 -48.014 -75.891  0.00  0.00    +0.000 Cl
ATOM     10  C   UNL     1     -55.216 -45.874 -77.562  0.00  0.00    +0.000 A 
ATOM     11  C   UNL     1     -54.463 -45.163 -76.512  0.00  0.00    +0.000 A 
ATOM     12  O   UNL     1     -53.799 -45.762 -75.675  0.00  0.00    +0.000 OA
ATOM     13  C   UNL     1     -54.464 -43.663 -76.539  0.00  0.00    +0.000 A 
ATOM     14  H   UNL     1     -55.066 -43.362 -79.703  0.00  0.00    +0.000 HD
ENDROOT
BRANCH   1  15
ATOM     15  S   UNL     1     -54.538 -41.352 -78.131  0.00  0.00    +0.000 S 
ATOM     16  O   UNL     1     -56.013 -41.058 -78.152  0.00  0.00    +0.000 OA
BRANCH  15  17
ATOM     17  C   UNL     1     -53.896 -41.030 -79.800  0.00  0.00    +0.000 C 
BRANCH  17  21
ATOM     18  C   UNL     1     -56.340 -39.704 -84.100  0.00  0.00    +0.000 C 
ATOM     19  C   UNL     1     -55.777 -40.244 -82.848  0.00  0.00    +0.000 A 
ATOM     20  C   UNL     1     -54.679 -39.950 -82.075  0.00  0.00    +0.000 A 
ATOM     21  C   UNL     1     -54.795 -40.803 -80.955  0.00  0.00    +0.000 A 
ATOM     22  N   UNL     1     -55.862 -41.611 -81.085  0.00  0.00    +0.000 NA
ATOM     23  O   UNL     1     -56.473 -41.256 -82.270  0.00  0.00    +0.000 OA
ENDBRANCH  17  21
ENDBRANCH  15  17
ENDBRANCH   1  15
BRANCH  13  24
ATOM     24  C   UNL     1     -54.659 -43.039 -75.199  0.00  0.00    +0.000 C 
ATOM     25  O   UNL     1     -53.735 -42.967 -74.408  0.00  0.00    +0.000 OA
BRANCH  24  26
ATOM     26  C   UNL     1     -55.978 -42.468 -74.866  0.00  0.00    +0.000 C 
ATOM     27  C   UNL     1     -56.351 -42.256 -73.422  0.00  0.00    +0.000 C 
ATOM     28  C   UNL     1     -57.055 -43.309 -74.222  0.00  0.00    +0.000 C 
ENDBRANCH  24  26
ENDBRANCH  13  24
TORSDOF 5
ENDMDL
MODEL 20
REMARK VINA RESULT:    -5.376      4.178      6.306
REMARK INTER + INTRA:          -7.890
REMARK INTER:                  -7.094
REMARK INTRA:                  -0.796
REMARK UNBOUND:                -0.943
REMARK  Name = 
REMARK  6 active torsions:
REMARK  status: ('A' for Active; 'I' for Inactive)
REMARK    1  A    between atoms: C_1  and  C_2
REMARK    2  A    between atoms: C_4  and  C_5
REMARK    3  A    between atoms: C_5  and  S_6
REMARK    4  A    between atoms: S_6  and  C_8
REMARK    5  A    between atoms: C_20  and  C_21
REMARK    6  A    between atoms: C_21  and  C_23
REMARK                            x       y       z     vdW  Elec       q    Type
REMARK                         _______ _______ _______ _____ _____    ______ ____
ROOT
ATOM      1  C   UNL     1     -56.787 -43.387 -78.234  0.00  0.00    +0.000 A 
ATOM      2  N   UNL     1     -56.686 -42.424 -79.256  0.00  0.00    +0.000 N 
ATOM      3  C   UNL     1     -55.560 -41.558 -79.326  0.00  0.00    +0.000 A 
ATOM      4  C   UNL     1     -55.198 -40.863 -80.495  0.00  0.00    +0.000 A 
ATOM      5 BR   UNL     1     -56.096 -41.173 -82.137  0.00  0.00    +0.000 Br
ATOM      6  C   UNL     1     -54.147 -39.935 -80.491  0.00  0.00    +0.000 A 
ATOM      7  C   UNL     1     -53.424 -39.713 -79.313  0.00  0.00    +0.000 A 
ATOM      8  C   UNL     1     -53.763 -40.392 -78.143  0.00  0.00    +0.000 A 
ATOM      9 CL   UNL     1     -52.765 -40.102 -76.764  0.00  0.00    +0.000 Cl
ATOM     10  C   UNL     1     -54.840 -41.292 -78.151  0.00  0.00    +0.000 A 
ATOM     11  C   UNL     1     -55.326 -41.990 -76.945  0.00  0.00    +0.000 A 
ATOM     12  O   UNL     1     -55.233 -41.491 -75.830  0.00  0.00    +0.000 OA
ATOM     13  C   UNL     1     -56.017 -43.309 -77.126  0.00  0.00    +0.000 A 
ATOM     14  H   UNL     1     -56.982 -42.794 -80.170  0.00  0.00    +0.000 HD
ENDROOT
BRANCH   1  15
ATOM     15  S   UNL     1     -57.663 -44.881 -78.768  0.00  0.00    +0.000 S 
ATOM     16  O   UNL     1     -58.575 -45.206 -77.616  0.00  0.00    +0.000 OA
BRANCH  15  17
ATOM     17  C   UNL     1     -56.482 -46.252 -78.930  0.00  0.00    +0.000 C 
BRANCH  17  21
ATOM     18  C   UNL     1     -57.399 -51.157 -77.780  0.00  0.00    +0.000 C 
ATOM     19  C   UNL     1     -57.308 -49.757 -78.235  0.00  0.00    +0.000 A 
ATOM     20  C   UNL     1     -56.502 -48.688 -77.920  0.00  0.00    +0.000 A 
ATOM     21  C   UNL     1     -56.904 -47.667 -78.809  0.00  0.00    +0.000 A 
ATOM     22  N   UNL     1     -57.939 -48.078 -79.563  0.00  0.00    +0.000 NA
ATOM     23  O   UNL     1     -58.186 -49.385 -79.201  0.00  0.00    +0.000 OA
ENDBRANCH  17  21
ENDBRANCH  15  17
ENDBRANCH   1  15
BRANCH  13  24
ATOM     24  C   UNL     1     -55.593 -44.347 -76.144  0.00  0.00    +0.000 C 
ATOM     25  O   UNL     1     -56.321 -44.658 -75.217  0.00  0.00    +0.000 OA
BRANCH  24  26
ATOM     26  C   UNL     1     -54.298 -45.025 -76.341  0.00  0.00    +0.000 C 
ATOM     27  C   UNL     1     -54.009 -46.302 -75.595  0.00  0.00    +0.000 C 
ATOM     28  C   UNL     1     -53.255 -45.055 -75.249  0.00  0.00    +0.000 C 
ENDBRANCH  24  26
ENDBRANCH  13  24
TORSDOF 5
ENDMDL
