REMARK VINA RESULT:    -6.751     11.121     13.557
REMARK INTER + INTRA:          -9.600
REMARK INTER:                  -8.715
REMARK INTRA:                  -0.885
REMARK UNBOUND:                -0.876
REMARK  Name = 
REMARK  6 active torsions:
REMARK  status: ('A' for Active; 'I' for Inactive)
REMARK    1  A    between atoms: C_1  and  C_2
REMARK    2  A    between atoms: C_4  and  C_5
REMARK    3  A    between atoms: C_5  and  S_6
REMARK    4  A    between atoms: S_6  and  C_8
REMARK    5  A    between atoms: C_20  and  C_21
REMARK    6  A    between atoms: C_21  and  C_23
REMARK                            x       y       z     vdW  Elec       q    Type
REMARK                         _______ _______ _______ _____ _____    ______ ____
ROOT
ATOM      1  C   UNL     1     -57.806 -41.035 -62.766  0.00  0.00    +0.000 A 
ATOM      2  N   UNL     1     -57.323 -39.762 -62.406  0.00  0.00    +0.000 N 
ATOM      3  C   UNL     1     -56.213 -39.190 -63.086  0.00  0.00    +0.000 A 
ATOM      4  C   UNL     1     -55.924 -37.812 -63.061  0.00  0.00    +0.000 A 
ATOM      5 BR   UNL     1     -57.115 -36.577 -62.253  0.00  0.00    +0.000 Br
ATOM      6  C   UNL     1     -54.759 -37.305 -63.653  0.00  0.00    +0.000 A 
ATOM      7  C   UNL     1     -53.878 -38.176 -64.305  0.00  0.00    +0.000 A 
ATOM      8  C   UNL     1     -54.144 -39.544 -64.344  0.00  0.00    +0.000 A 
ATOM      9 CL   UNL     1     -53.034 -40.523 -65.234  0.00  0.00    +0.000 Cl
ATOM     10  C   UNL     1     -55.296 -40.044 -63.717  0.00  0.00    +0.000 A 
ATOM     11  C   UNL     1     -55.616 -41.482 -63.632  0.00  0.00    +0.000 A 
ATOM     12  O   UNL     1     -54.739 -42.337 -63.593  0.00  0.00    +0.000 OA
ATOM     13  C   UNL     1     -57.058 -41.876 -63.513  0.00  0.00    +0.000 A 
ATOM     14  H   UNL     1     -58.085 -39.094 -62.221  0.00  0.00    +0.000 HD
ENDROOT
BRANCH   1  15
ATOM     15  S   UNL     1     -59.595 -41.195 -62.524  0.00  0.00    +0.000 S 
ATOM     16  O   UNL     1     -60.089 -39.775 -62.468  0.00  0.00    +0.000 OA
BRANCH  15  17
ATOM     17  C   UNL     1     -59.922 -41.948 -60.903  0.00  0.00    +0.000 C 
BRANCH  17  21
ATOM     18  C   UNL     1     -61.592 -46.640 -59.715  0.00  0.00    +0.000 C 
ATOM     19  C   UNL     1     -61.050 -45.374 -60.242  0.00  0.00    +0.000 A 
ATOM     20  C   UNL     1     -61.028 -44.073 -59.800  0.00  0.00    +0.000 A 
ATOM     21  C   UNL     1     -60.254 -43.384 -60.760  0.00  0.00    +0.000 A 
ATOM     22  N   UNL     1     -59.894 -44.212 -61.756  0.00  0.00    +0.000 NA
ATOM     23  O   UNL     1     -60.393 -45.455 -61.427  0.00  0.00    +0.000 OA
ENDBRANCH  17  21
ENDBRANCH  15  17
ENDBRANCH   1  15
BRANCH  13  24
ATOM     24  C   UNL     1     -57.438 -43.027 -64.381  0.00  0.00    +0.000 C 
ATOM     25  O   UNL     1     -57.430 -44.164 -63.941  0.00  0.00    +0.000 OA
BRANCH  24  26
ATOM     26  C   UNL     1     -57.871 -42.761 -65.766  0.00  0.00    +0.000 C 
ATOM     27  C   UNL     1     -57.924 -43.896 -66.757  0.00  0.00    +0.000 C 
ATOM     28  C   UNL     1     -56.894 -42.819 -66.916  0.00  0.00    +0.000 C 
ENDBRANCH  24  26
ENDBRANCH  13  24
TORSDOF 5
