REMARK VINA RESULT:    -5.359     10.141     13.195
REMARK INTER + INTRA:          -7.136
REMARK INTER:                  -6.396
REMARK INTRA:                  -0.740
REMARK UNBOUND:                -0.524
REMARK  Name = 
REMARK  6 active torsions:
REMARK  status: ('A' for Active; 'I' for Inactive)
REMARK    1  A    between atoms: C_1  and  C_2
REMARK    2  A    between atoms: C_2  and  C_4
REMARK    3  A    between atoms: C_5  and  S_6
REMARK    4  A    between atoms: S_6  and  C_8
REMARK    5  A    between atoms: C_8  and  C_9
REMARK    6  A    between atoms: C_11  and  C_12
REMARK                            x       y       z     vdW  Elec       q    Type
REMARK                         _______ _______ _______ _____ _____    ______ ____
ROOT
ATOM      1  C   UNL     1     -64.303 -42.861 -71.940  0.00  0.00    +0.000 A 
ATOM      2  C   UNL     1     -64.717 -41.742 -71.306  0.00  0.00    +0.000 A 
ATOM      3  N   UNL     1     -65.996 -41.227 -71.420  0.00  0.00    +0.000 N 
ATOM      4  C   UNL     1     -66.948 -41.748 -72.308  0.00  0.00    +0.000 A 
ATOM      5  C   UNL     1     -68.225 -41.165 -72.415  0.00  0.00    +0.000 A 
ATOM      6 BR   UNL     1     -68.677 -39.608 -71.424  0.00  0.00    +0.000 Br
ATOM      7  C   UNL     1     -69.194 -41.709 -73.252  0.00  0.00    +0.000 A 
ATOM      8  C   UNL     1     -68.901 -42.855 -73.989  0.00  0.00    +0.000 A 
ATOM      9  C   UNL     1     -67.646 -43.464 -73.883  0.00  0.00    +0.000 A 
ATOM     10 CL   UNL     1     -67.433 -44.877 -74.859  0.00  0.00    +0.000 Cl
ATOM     11  C   UNL     1     -66.666 -42.921 -73.029  0.00  0.00    +0.000 A 
ATOM     12  C   UNL     1     -65.304 -43.504 -72.866  0.00  0.00    +0.000 A 
ATOM     13  O   UNL     1     -64.978 -44.485 -73.523  0.00  0.00    +0.000 OA
ATOM     14  H   UNL     1     -66.086 -40.232 -71.210  0.00  0.00    +0.000 HD
ENDROOT
BRANCH   1  16
ATOM     15  C   UNL     1     -61.816 -42.957 -72.714  0.00  0.00    +0.000 C 
ATOM     16  C   UNL     1     -62.923 -43.459 -71.811  0.00  0.00    +0.000 C 
ATOM     17  O   UNL     1     -62.678 -44.352 -71.001  0.00  0.00    +0.000 OA
ENDBRANCH   1  16
BRANCH   2  18
ATOM     18  S   UNL     1     -63.552 -40.700 -70.366  0.00  0.00    +0.000 S 
ATOM     19  O   UNL     1     -64.329 -39.435 -70.123  0.00  0.00    +0.000 OA
BRANCH  18  20
ATOM     20  C   UNL     1     -63.555 -41.606 -68.777  0.00  0.00    +0.000 C 
BRANCH  20  21
ATOM     21  C   UNL     1     -62.187 -41.743 -68.191  0.00  0.00    +0.000 A 
ATOM     22  C   UNL     1     -61.039 -42.408 -68.693  0.00  0.00    +0.000 A 
ATOM     23  C   UNL     1     -60.066 -42.184 -67.749  0.00  0.00    +0.000 A 
ATOM     24  C   UNL     1     -58.660 -42.598 -67.592  0.00  0.00    +0.000 C 
ATOM     25  O   UNL     1     -60.579 -41.405 -66.762  0.00  0.00    +0.000 OA
ATOM     26  N   UNL     1     -61.905 -41.122 -67.036  0.00  0.00    +0.000 NA
ENDBRANCH  20  21
ENDBRANCH  18  20
ENDBRANCH   2  18
TORSDOF 4
