REMARK VINA RESULT:    -7.145      2.624      4.100
REMARK INTER + INTRA:         -10.159
REMARK INTER:                  -9.159
REMARK INTRA:                  -1.000
REMARK UNBOUND:                -0.925
REMARK  Name = 
REMARK  8 active torsions:
REMARK  status: ('A' for Active; 'I' for Inactive)
REMARK    1  A    between atoms: C_1  and  C_2
REMARK    2  A    between atoms: C_4  and  C_5
REMARK    3  A    between atoms: C_5  and  S_6
REMARK    4  A    between atoms: S_6  and  C_8
REMARK    5  A    between atoms: C_20  and  C_21
REMARK    6  A    between atoms: C_21  and  C_23
REMARK    7  A    between atoms: C_23  and  C_24
REMARK    8  A    between atoms: C_23  and  C_25
REMARK                            x       y       z     vdW  Elec       q    Type
REMARK                         _______ _______ _______ _____ _____    ______ ____
ROOT
ATOM      1  C   UNL     1     -55.363 -42.685 -76.521  0.00  0.00    +0.000 A 
ATOM      2  N   UNL     1     -54.023 -42.980 -76.284  0.00  0.00    +0.000 N 
ATOM      3  C   UNL     1     -53.051 -41.965 -76.162  0.00  0.00    +0.000 A 
ATOM      4  C   UNL     1     -51.802 -42.195 -75.552  0.00  0.00    +0.000 A 
ATOM      5 CL   UNL     1     -51.464 -43.700 -74.773  0.00  0.00    +0.000 Cl
ATOM      6  C   UNL     1     -50.817 -41.208 -75.536  0.00  0.00    +0.000 A 
ATOM      7  C   UNL     1     -51.071 -39.970 -76.131  0.00  0.00    +0.000 A 
ATOM      8  C   UNL     1     -52.312 -39.717 -76.729  0.00  0.00    +0.000 A 
ATOM      9 CL   UNL     1     -52.531 -38.130 -77.371  0.00  0.00    +0.000 Cl
ATOM     10  C   UNL     1     -53.294 -40.719 -76.755  0.00  0.00    +0.000 A 
ATOM     11  C   UNL     1     -54.611 -40.591 -77.429  0.00  0.00    +0.000 A 
ATOM     12  O   UNL     1     -54.721 -39.838 -78.389  0.00  0.00    +0.000 OA
ATOM     13  C   UNL     1     -55.772 -41.464 -76.971  0.00  0.00    +0.000 A 
ATOM     14  H   UNL     1     -53.885 -43.798 -75.676  0.00  0.00    +0.000 HD
ENDROOT
BRANCH   1  15
ATOM     15  S   UNL     1     -56.458 -44.035 -75.921  0.00  0.00    +0.000 S 
ATOM     16  O   UNL     1     -56.990 -43.507 -74.616  0.00  0.00    +0.000 OA
BRANCH  15  17
ATOM     17  C   UNL     1     -55.267 -45.379 -75.527  0.00  0.00    +0.000 C 
BRANCH  17  21
ATOM     18  C   UNL     1     -55.437 -49.934 -77.968  0.00  0.00    +0.000 C 
ATOM     19  C   UNL     1     -55.416 -48.547 -77.458  0.00  0.00    +0.000 A 
ATOM     20  C   UNL     1     -55.438 -47.966 -76.211  0.00  0.00    +0.000 A 
ATOM     21  C   UNL     1     -55.345 -46.566 -76.454  0.00  0.00    +0.000 A 
ATOM     22  N   UNL     1     -55.304 -46.333 -77.777  0.00  0.00    +0.000 NA
ATOM     23  O   UNL     1     -55.343 -47.568 -78.396  0.00  0.00    +0.000 OA
ENDBRANCH  17  21
ENDBRANCH  15  17
ENDBRANCH   1  15
BRANCH  13  24
ATOM     24  C   UNL     1     -57.137 -40.815 -77.080  0.00  0.00    +0.000 C 
ATOM     25  O   UNL     1     -57.503 -40.005 -76.218  0.00  0.00    +0.000 OA
BRANCH  24  26
ATOM     26  C   UNL     1     -58.148 -41.229 -78.132  0.00  0.00    +0.000 C 
ATOM     27  C   UNL     1     -57.437 -41.907 -79.288  0.00  0.00    +0.000 C 
ATOM     28  C   UNL     1     -59.273 -42.065 -77.533  0.00  0.00    +0.000 C 
ENDBRANCH  24  26
ENDBRANCH  13  24
TORSDOF 5
