REMARK VINA RESULT:    -6.512     12.424     14.847
REMARK INTER + INTRA:          -9.284
REMARK INTER:                  -8.234
REMARK INTRA:                  -1.050
REMARK UNBOUND:                -0.869
REMARK  Name = 
REMARK  6 active torsions:
REMARK  status: ('A' for Active; 'I' for Inactive)
REMARK    1  A    between atoms: C_1  and  C_2
REMARK    2  A    between atoms: C_4  and  C_5
REMARK    3  A    between atoms: C_5  and  S_6
REMARK    4  A    between atoms: S_6  and  C_8
REMARK    5  A    between atoms: C_20  and  C_21
REMARK    6  A    between atoms: C_21  and  C_23
REMARK                            x       y       z     vdW  Elec       q    Type
REMARK                         _______ _______ _______ _____ _____    ______ ____
ROOT
ATOM      1  C   UNL     1     -55.945 -41.834 -77.428  0.00  0.00    +0.000 A 
ATOM      2  N   UNL     1     -55.060 -40.761 -77.205  0.00  0.00    +0.000 N 
ATOM      3  C   UNL     1     -53.732 -40.999 -76.756  0.00  0.00    +0.000 A 
ATOM      4  C   UNL     1     -52.697 -40.054 -76.884  0.00  0.00    +0.000 A 
ATOM      5 BR   UNL     1     -52.960 -38.437 -77.841  0.00  0.00    +0.000 Br
ATOM      6  C   UNL     1     -51.431 -40.286 -76.329  0.00  0.00    +0.000 A 
ATOM      7  C   UNL     1     -51.178 -41.488 -75.660  0.00  0.00    +0.000 A 
ATOM      8  C   UNL     1     -52.187 -42.441 -75.522  0.00  0.00    +0.000 A 
ATOM      9 CL   UNL     1     -51.754 -43.920 -74.743  0.00  0.00    +0.000 Cl
ATOM     10  C   UNL     1     -53.461 -42.182 -76.050  0.00  0.00    +0.000 A 
ATOM     11  C   UNL     1     -54.612 -43.090 -75.880  0.00  0.00    +0.000 A 
ATOM     12  O   UNL     1     -54.729 -43.803 -74.892  0.00  0.00    +0.000 OA
ATOM     13  C   UNL     1     -55.691 -43.061 -76.922  0.00  0.00    +0.000 A 
ATOM     14  H   UNL     1     -55.127 -40.043 -77.940  0.00  0.00    +0.000 HD
ENDROOT
BRANCH   1  15
ATOM     15  S   UNL     1     -57.121 -41.501 -78.765  0.00  0.00    +0.000 S 
ATOM     16  O   UNL     1     -58.350 -42.278 -78.379  0.00  0.00    +0.000 OA
BRANCH  15  17
ATOM     17  C   UNL     1     -56.493 -42.211 -80.316  0.00  0.00    +0.000 C 
BRANCH  17  21
ATOM     18  C   UNL     1     -51.517 -42.504 -81.486  0.00  0.00    +0.000 C 
ATOM     19  C   UNL     1     -52.954 -42.248 -81.275  0.00  0.00    +0.000 A 
ATOM     20  C   UNL     1     -53.968 -42.906 -80.619  0.00  0.00    +0.000 A 
ATOM     21  C   UNL     1     -55.083 -42.047 -80.737  0.00  0.00    +0.000 A 
ATOM     22  N   UNL     1     -54.773 -40.971 -81.481  0.00  0.00    +0.000 NA
ATOM     23  O   UNL     1     -53.440 -41.101 -81.813  0.00  0.00    +0.000 OA
ENDBRANCH  17  21
ENDBRANCH  15  17
ENDBRANCH   1  15
BRANCH  13  24
ATOM     24  C   UNL     1     -56.164 -44.414 -77.332  0.00  0.00    +0.000 C 
ATOM     25  O   UNL     1     -57.277 -44.801 -77.021  0.00  0.00    +0.000 OA
BRANCH  24  26
ATOM     26  C   UNL     1     -55.280 -45.256 -78.160  0.00  0.00    +0.000 C 
ATOM     27  C   UNL     1     -55.865 -46.416 -78.924  0.00  0.00    +0.000 C 
ATOM     28  C   UNL     1     -54.955 -46.676 -77.762  0.00  0.00    +0.000 C 
ENDBRANCH  24  26
ENDBRANCH  13  24
TORSDOF 5
