REMARK VINA RESULT:    -5.798     15.759     17.819
REMARK INTER + INTRA:          -8.286
REMARK INTER:                  -6.788
REMARK INTRA:                  -1.498
REMARK UNBOUND:                -0.794
REMARK  Name = 
REMARK  8 active torsions:
REMARK  status: ('A' for Active; 'I' for Inactive)
REMARK    1  A    between atoms: C_1  and  C_2
REMARK    2  A    between atoms: C_4  and  C_5
REMARK    3  A    between atoms: C_5  and  S_6
REMARK    4  A    between atoms: S_6  and  C_8
REMARK    5  A    between atoms: C_20  and  C_21
REMARK    6  A    between atoms: C_21  and  C_23
REMARK    7  A    between atoms: C_23  and  C_24
REMARK    8  A    between atoms: C_23  and  C_25
REMARK                            x       y       z     vdW  Elec       q    Type
REMARK                         _______ _______ _______ _____ _____    ______ ____
ROOT
ATOM      1  C   UNL     1     -58.521 -32.466 -60.410  0.00  0.00    +0.000 A 
ATOM      2  N   UNL     1     -57.686 -31.368 -60.591  0.00  0.00    +0.000 N 
ATOM      3  C   UNL     1     -57.855 -30.481 -61.672  0.00  0.00    +0.000 A 
ATOM      4  C   UNL     1     -57.328 -29.176 -61.659  0.00  0.00    +0.000 A 
ATOM      5 BR   UNL     1     -56.494 -28.475 -60.107  0.00  0.00    +0.000 Br
ATOM      6  C   UNL     1     -57.443 -28.343 -62.777  0.00  0.00    +0.000 A 
ATOM      7  C   UNL     1     -58.090 -28.802 -63.920  0.00  0.00    +0.000 A 
ATOM      8  C   UNL     1     -58.630 -30.100 -63.951  0.00  0.00    +0.000 A 
ATOM      9 CL   UNL     1     -59.471 -30.531 -65.396  0.00  0.00    +0.000 Cl
ATOM     10  C   UNL     1     -58.508 -30.943 -62.826  0.00  0.00    +0.000 A 
ATOM     11  C   UNL     1     -59.013 -32.339 -62.770  0.00  0.00    +0.000 A 
ATOM     12  O   UNL     1     -59.175 -32.976 -63.806  0.00  0.00    +0.000 OA
ATOM     13  C   UNL     1     -59.300 -32.956 -61.404  0.00  0.00    +0.000 A 
ATOM     14  H   UNL     1     -57.350 -30.950 -59.712  0.00  0.00    +0.000 HD
ENDROOT
BRANCH   1  15
ATOM     15  S   UNL     1     -58.578 -32.986 -58.654  0.00  0.00    +0.000 S 
ATOM     16  O   UNL     1     -57.889 -31.864 -57.925  0.00  0.00    +0.000 OA
BRANCH  15  17
ATOM     17  C   UNL     1     -57.492 -34.452 -58.615  0.00  0.00    +0.000 C 
BRANCH  17  21
ATOM     18  C   UNL     1     -54.441 -35.340 -62.702  0.00  0.00    +0.000 C 
ATOM     19  C   UNL     1     -55.188 -34.926 -61.494  0.00  0.00    +0.000 A 
ATOM     20  C   UNL     1     -56.366 -35.313 -60.896  0.00  0.00    +0.000 A 
ATOM     21  C   UNL     1     -56.470 -34.507 -59.726  0.00  0.00    +0.000 A 
ATOM     22  N   UNL     1     -55.418 -33.673 -59.653  0.00  0.00    +0.000 NA
ATOM     23  O   UNL     1     -54.623 -33.940 -60.751  0.00  0.00    +0.000 OA
ENDBRANCH  17  21
ENDBRANCH  15  17
ENDBRANCH   1  15
BRANCH  13  24
ATOM     24  C   UNL     1     -60.414 -33.976 -61.340  0.00  0.00    +0.000 C 
ATOM     25  O   UNL     1     -61.589 -33.610 -61.347  0.00  0.00    +0.000 OA
BRANCH  24  26
ATOM     26  C   UNL     1     -60.093 -35.464 -61.199  0.00  0.00    +0.000 C 
ATOM     27  C   UNL     1     -60.850 -36.100 -60.036  0.00  0.00    +0.000 C 
ATOM     28  C   UNL     1     -60.366 -36.234 -62.494  0.00  0.00    +0.000 C 
ENDBRANCH  24  26
ENDBRANCH  13  24
TORSDOF 5
