REMARK VINA RESULT:    -4.722     18.672     21.533
REMARK INTER + INTRA:          -6.989
REMARK INTER:                  -6.160
REMARK INTRA:                  -0.829
REMARK UNBOUND:                -0.887
REMARK  Name = 
REMARK  8 active torsions:
REMARK  status: ('A' for Active; 'I' for Inactive)
REMARK    1  A    between atoms: C_1  and  C_2
REMARK    2  A    between atoms: C_4  and  C_5
REMARK    3  A    between atoms: C_5  and  S_6
REMARK    4  A    between atoms: S_6  and  C_8
REMARK    5  A    between atoms: C_20  and  C_21
REMARK    6  A    between atoms: C_21  and  C_23
REMARK    7  A    between atoms: C_23  and  C_24
REMARK    8  A    between atoms: C_23  and  C_25
REMARK                            x       y       z     vdW  Elec       q    Type
REMARK                         _______ _______ _______ _____ _____    ______ ____
ROOT
ATOM      1  C   UNL     1     -64.128 -38.688 -83.012  0.00  0.00    +0.000 A 
ATOM      2  N   UNL     1     -63.030 -39.220 -83.682  0.00  0.00    +0.000 N 
ATOM      3  C   UNL     1     -61.995 -39.884 -82.993  0.00  0.00    +0.000 A 
ATOM      4  C   UNL     1     -61.115 -40.773 -83.640  0.00  0.00    +0.000 A 
ATOM      5 BR   UNL     1     -61.376 -41.255 -85.455  0.00  0.00    +0.000 Br
ATOM      6  C   UNL     1     -60.050 -41.357 -82.950  0.00  0.00    +0.000 A 
ATOM      7  C   UNL     1     -59.851 -41.067 -81.603  0.00  0.00    +0.000 A 
ATOM      8  C   UNL     1     -60.723 -40.187 -80.937  0.00  0.00    +0.000 A 
ATOM      9 CL   UNL     1     -60.419 -39.960 -79.253  0.00  0.00    +0.000 Cl
ATOM     10  C   UNL     1     -61.794 -39.591 -81.635  0.00  0.00    +0.000 A 
ATOM     11  C   UNL     1     -62.749 -38.626 -81.032  0.00  0.00    +0.000 A 
ATOM     12  O   UNL     1     -62.422 -37.972 -80.046  0.00  0.00    +0.000 OA
ATOM     13  C   UNL     1     -64.121 -38.458 -81.678  0.00  0.00    +0.000 A 
ATOM     14  H   UNL     1     -63.247 -39.576 -84.623  0.00  0.00    +0.000 HD
ENDROOT
BRANCH   1  15
ATOM     15  S   UNL     1     -65.589 -38.564 -84.111  0.00  0.00    +0.000 S 
ATOM     16  O   UNL     1     -66.250 -39.910 -83.984  0.00  0.00    +0.000 OA
BRANCH  15  17
ATOM     17  C   UNL     1     -64.852 -38.437 -85.776  0.00  0.00    +0.000 C 
BRANCH  17  21
ATOM     18  C   UNL     1     -67.299 -35.570 -89.325  0.00  0.00    +0.000 C 
ATOM     19  C   UNL     1     -66.555 -36.210 -88.217  0.00  0.00    +0.000 A 
ATOM     20  C   UNL     1     -66.337 -37.507 -87.811  0.00  0.00    +0.000 A 
ATOM     21  C   UNL     1     -65.491 -37.400 -86.669  0.00  0.00    +0.000 A 
ATOM     22  N   UNL     1     -65.244 -36.106 -86.405  0.00  0.00    +0.000 NA
ATOM     23  O   UNL     1     -65.903 -35.371 -87.372  0.00  0.00    +0.000 OA
ENDBRANCH  17  21
ENDBRANCH  15  17
ENDBRANCH   1  15
BRANCH  13  24
ATOM     24  C   UNL     1     -65.268 -38.105 -80.756  0.00  0.00    +0.000 C 
ATOM     25  O   UNL     1     -65.818 -38.980 -80.090  0.00  0.00    +0.000 OA
BRANCH  24  26
ATOM     26  C   UNL     1     -65.796 -36.671 -80.695  0.00  0.00    +0.000 C 
ATOM     27  C   UNL     1     -67.320 -36.632 -80.610  0.00  0.00    +0.000 C 
ATOM     28  C   UNL     1     -65.179 -35.883 -79.537  0.00  0.00    +0.000 C 
ENDBRANCH  24  26
ENDBRANCH  13  24
TORSDOF 5
