REMARK VINA RESULT:    -7.523      9.978     12.807
REMARK INTER + INTRA:         -10.720
REMARK INTER:                  -9.552
REMARK INTRA:                  -1.168
REMARK UNBOUND:                -0.997
REMARK  Name = 
REMARK  8 active torsions:
REMARK  status: ('A' for Active; 'I' for Inactive)
REMARK    1  A    between atoms: C_1  and  C_2
REMARK    2  A    between atoms: C_4  and  C_5
REMARK    3  A    between atoms: C_5  and  S_6
REMARK    4  A    between atoms: S_6  and  C_8
REMARK    5  A    between atoms: C_20  and  C_21
REMARK    6  A    between atoms: C_21  and  C_23
REMARK    7  A    between atoms: C_23  and  C_24
REMARK    8  A    between atoms: C_23  and  C_25
REMARK                            x       y       z     vdW  Elec       q    Type
REMARK                         _______ _______ _______ _____ _____    ______ ____
ROOT
ATOM      1  C   UNL     1     -55.518 -42.066 -62.950  0.00  0.00    +0.000 A 
ATOM      2  N   UNL     1     -54.827 -43.275 -62.935  0.00  0.00    +0.000 N 
ATOM      3  C   UNL     1     -53.450 -43.345 -63.238  0.00  0.00    +0.000 A 
ATOM      4  C   UNL     1     -52.657 -44.447 -62.863  0.00  0.00    +0.000 A 
ATOM      5 CL   UNL     1     -53.303 -45.700 -61.863  0.00  0.00    +0.000 Cl
ATOM      6  C   UNL     1     -51.325 -44.544 -63.264  0.00  0.00    +0.000 A 
ATOM      7  C   UNL     1     -50.765 -43.532 -64.047  0.00  0.00    +0.000 A 
ATOM      8  C   UNL     1     -51.533 -42.421 -64.418  0.00  0.00    +0.000 A 
ATOM      9 CL   UNL     1     -50.713 -41.206 -65.328  0.00  0.00    +0.000 Cl
ATOM     10  C   UNL     1     -52.877 -42.336 -64.024  0.00  0.00    +0.000 A 
ATOM     11  C   UNL     1     -53.806 -41.249 -64.424  0.00  0.00    +0.000 A 
ATOM     12  O   UNL     1     -53.615 -40.658 -65.480  0.00  0.00    +0.000 OA
ATOM     13  C   UNL     1     -55.024 -40.951 -63.559  0.00  0.00    +0.000 A 
ATOM     14  H   UNL     1     -55.151 -43.925 -62.206  0.00  0.00    +0.000 HD
ENDROOT
BRANCH   1  15
ATOM     15  S   UNL     1     -56.997 -42.134 -61.860  0.00  0.00    +0.000 S 
ATOM     16  O   UNL     1     -56.536 -42.952 -60.685  0.00  0.00    +0.000 OA
BRANCH  15  17
ATOM     17  C   UNL     1     -58.169 -43.170 -62.827  0.00  0.00    +0.000 C 
BRANCH  17  21
ATOM     18  C   UNL     1     -57.772 -42.692 -67.960  0.00  0.00    +0.000 C 
ATOM     19  C   UNL     1     -58.022 -42.672 -66.503  0.00  0.00    +0.000 A 
ATOM     20  C   UNL     1     -57.694 -43.489 -65.446  0.00  0.00    +0.000 A 
ATOM     21  C   UNL     1     -58.222 -42.836 -64.297  0.00  0.00    +0.000 A 
ATOM     22  N   UNL     1     -58.859 -41.711 -64.662  0.00  0.00    +0.000 NA
ATOM     23  O   UNL     1     -58.726 -41.610 -66.034  0.00  0.00    +0.000 OA
ENDBRANCH  17  21
ENDBRANCH  15  17
ENDBRANCH   1  15
BRANCH  13  24
ATOM     24  C   UNL     1     -55.436 -39.494 -63.523  0.00  0.00    +0.000 C 
ATOM     25  O   UNL     1     -56.544 -39.157 -63.962  0.00  0.00    +0.000 OA
BRANCH  24  26
ATOM     26  C   UNL     1     -54.481 -38.392 -63.105  0.00  0.00    +0.000 C 
ATOM     27  C   UNL     1     -54.335 -37.386 -64.231  0.00  0.00    +0.000 C 
ATOM     28  C   UNL     1     -54.890 -37.766 -61.777  0.00  0.00    +0.000 C 
ENDBRANCH  24  26
ENDBRANCH  13  24
TORSDOF 5
