REMARK VINA RESULT:    -6.682      3.460      6.966
REMARK INTER + INTRA:          -9.534
REMARK INTER:                  -8.367
REMARK INTRA:                  -1.168
REMARK UNBOUND:                -0.899
REMARK  Name = 
REMARK  6 active torsions:
REMARK  status: ('A' for Active; 'I' for Inactive)
REMARK    1  A    between atoms: C_1  and  C_2
REMARK    2  A    between atoms: C_4  and  C_5
REMARK    3  A    between atoms: C_5  and  S_6
REMARK    4  A    between atoms: S_6  and  C_8
REMARK    5  A    between atoms: C_20  and  C_21
REMARK    6  A    between atoms: C_21  and  C_23
REMARK                            x       y       z     vdW  Elec       q    Type
REMARK                         _______ _______ _______ _____ _____    ______ ____
ROOT
ATOM      1  C   UNL     1     -54.783 -43.408 -78.196  0.00  0.00    +0.000 A 
ATOM      2  N   UNL     1     -54.910 -44.474 -79.107  0.00  0.00    +0.000 N 
ATOM      3  C   UNL     1     -55.286 -45.769 -78.657  0.00  0.00    +0.000 A 
ATOM      4  C   UNL     1     -55.804 -46.759 -79.513  0.00  0.00    +0.000 A 
ATOM      5 BR   UNL     1     -56.211 -46.372 -81.324  0.00  0.00    +0.000 Br
ATOM      6  C   UNL     1     -56.059 -48.058 -79.049  0.00  0.00    +0.000 A 
ATOM      7  C   UNL     1     -55.821 -48.373 -77.706  0.00  0.00    +0.000 A 
ATOM      8  C   UNL     1     -55.310 -47.407 -76.839  0.00  0.00    +0.000 A 
ATOM      9 CL   UNL     1     -55.120 -47.875 -75.187  0.00  0.00    +0.000 Cl
ATOM     10  C   UNL     1     -55.025 -46.122 -77.323  0.00  0.00    +0.000 A 
ATOM     11  C   UNL     1     -54.404 -45.063 -76.504  0.00  0.00    +0.000 A 
ATOM     12  O   UNL     1     -53.629 -45.325 -75.592  0.00  0.00    +0.000 OA
ATOM     13  C   UNL     1     -54.686 -43.636 -76.868  0.00  0.00    +0.000 A 
ATOM     14  H   UNL     1     -55.375 -44.188 -79.980  0.00  0.00    +0.000 HD
ENDROOT
BRANCH   1  15
ATOM     15  S   UNL     1     -55.211 -41.808 -78.933  0.00  0.00    +0.000 S 
ATOM     16  O   UNL     1     -55.659 -42.152 -80.327  0.00  0.00    +0.000 OA
BRANCH  15  17
ATOM     17  C   UNL     1     -53.715 -40.788 -79.079  0.00  0.00    +0.000 C 
BRANCH  17  21
ATOM     18  C   UNL     1     -49.997 -40.935 -75.561  0.00  0.00    +0.000 C 
ATOM     19  C   UNL     1     -51.109 -40.697 -76.500  0.00  0.00    +0.000 A 
ATOM     20  C   UNL     1     -51.645 -41.390 -77.559  0.00  0.00    +0.000 A 
ATOM     21  C   UNL     1     -52.765 -40.625 -77.954  0.00  0.00    +0.000 A 
ATOM     22  N   UNL     1     -52.852 -39.503 -77.218  0.00  0.00    +0.000 NA
ATOM     23  O   UNL     1     -51.815 -39.554 -76.310  0.00  0.00    +0.000 OA
ENDBRANCH  17  21
ENDBRANCH  15  17
ENDBRANCH   1  15
BRANCH  13  24
ATOM     24  C   UNL     1     -54.977 -42.764 -75.694  0.00  0.00    +0.000 C 
ATOM     25  O   UNL     1     -54.073 -42.207 -75.096  0.00  0.00    +0.000 OA
BRANCH  24  26
ATOM     26  C   UNL     1     -56.382 -42.549 -75.299  0.00  0.00    +0.000 C 
ATOM     27  C   UNL     1     -56.689 -41.929 -73.961  0.00  0.00    +0.000 C 
ATOM     28  C   UNL     1     -57.021 -43.370 -74.204  0.00  0.00    +0.000 C 
ENDBRANCH  24  26
ENDBRANCH  13  24
TORSDOF 5
