REMARK VINA RESULT:    -5.319     12.640     15.289
REMARK INTER + INTRA:          -7.773
REMARK INTER:                  -6.970
REMARK INTRA:                  -0.803
REMARK UNBOUND:                -0.899
REMARK  Name = 
REMARK  6 active torsions:
REMARK  status: ('A' for Active; 'I' for Inactive)
REMARK    1  A    between atoms: C_1  and  C_2
REMARK    2  A    between atoms: C_4  and  C_5
REMARK    3  A    between atoms: C_5  and  S_6
REMARK    4  A    between atoms: S_6  and  C_8
REMARK    5  A    between atoms: C_20  and  C_21
REMARK    6  A    between atoms: C_21  and  C_23
REMARK                            x       y       z     vdW  Elec       q    Type
REMARK                         _______ _______ _______ _____ _____    ______ ____
ROOT
ATOM      1  C   UNL     1     -66.251 -42.844 -67.649  0.00  0.00    +0.000 A 
ATOM      2  N   UNL     1     -65.093 -42.414 -66.974  0.00  0.00    +0.000 N 
ATOM      3  C   UNL     1     -63.888 -42.168 -67.689  0.00  0.00    +0.000 A 
ATOM      4  C   UNL     1     -62.837 -41.385 -67.176  0.00  0.00    +0.000 A 
ATOM      5 BR   UNL     1     -63.027 -40.439 -65.542  0.00  0.00    +0.000 Br
ATOM      6  C   UNL     1     -61.623 -41.258 -67.866  0.00  0.00    +0.000 A 
ATOM      7  C   UNL     1     -61.459 -41.898 -69.100  0.00  0.00    +0.000 A 
ATOM      8  C   UNL     1     -62.487 -42.677 -69.629  0.00  0.00    +0.000 A 
ATOM      9 CL   UNL     1     -62.212 -43.364 -71.190  0.00  0.00    +0.000 Cl
ATOM     10  C   UNL     1     -63.684 -42.825 -68.912  0.00  0.00    +0.000 A 
ATOM     11  C   UNL     1     -64.792 -43.696 -69.350  0.00  0.00    +0.000 A 
ATOM     12  O   UNL     1     -64.593 -44.711 -70.005  0.00  0.00    +0.000 OA
ATOM     13  C   UNL     1     -66.180 -43.348 -68.901  0.00  0.00    +0.000 A 
ATOM     14  H   UNL     1     -65.300 -41.705 -66.256  0.00  0.00    +0.000 HD
ENDROOT
BRANCH   1  15
ATOM     15  S   UNL     1     -67.774 -42.244 -66.871  0.00  0.00    +0.000 S 
ATOM     16  O   UNL     1     -68.743 -43.383 -67.029  0.00  0.00    +0.000 OA
BRANCH  15  17
ATOM     17  C   UNL     1     -68.427 -40.839 -67.821  0.00  0.00    +0.000 C 
BRANCH  17  21
ATOM     18  C   UNL     1     -70.941 -36.664 -66.251  0.00  0.00    +0.000 C 
ATOM     19  C   UNL     1     -70.148 -37.882 -66.502  0.00  0.00    +0.000 A 
ATOM     20  C   UNL     1     -69.977 -38.719 -67.579  0.00  0.00    +0.000 A 
ATOM     21  C   UNL     1     -68.994 -39.642 -67.158  0.00  0.00    +0.000 A 
ATOM     22  N   UNL     1     -68.649 -39.413 -65.879  0.00  0.00    +0.000 NA
ATOM     23  O   UNL     1     -69.372 -38.310 -65.475  0.00  0.00    +0.000 OA
ENDBRANCH  17  21
ENDBRANCH  15  17
ENDBRANCH   1  15
BRANCH  13  24
ATOM     24  C   UNL     1     -67.204 -43.459 -69.979  0.00  0.00    +0.000 C 
ATOM     25  O   UNL     1     -68.046 -44.340 -69.945  0.00  0.00    +0.000 OA
BRANCH  24  26
ATOM     26  C   UNL     1     -67.210 -42.456 -71.060  0.00  0.00    +0.000 C 
ATOM     27  C   UNL     1     -68.083 -42.674 -72.269  0.00  0.00    +0.000 C 
ATOM     28  C   UNL     1     -66.593 -42.753 -72.407  0.00  0.00    +0.000 C 
ENDBRANCH  24  26
ENDBRANCH  13  24
TORSDOF 5
