=
 OpenBabel09162515433D

 28 31  0  0  1  0  0  0  0  0999 V2000
  -55.5030  -41.9880  -63.1770 C   0  0  2  0  0  3  0  0  0  0  0  0
  -54.7240  -43.1620  -63.1580 N   0  0  0  0  0  0  0  0  0  0  0  0
  -53.3330  -43.1120  -63.4470 C   0  0  0  0  0  0  0  0  0  0  0  0
  -52.4350  -44.1310  -63.0770 C   0  0  0  0  0  0  0  0  0  0  0  0
  -52.9950  -45.5830  -61.9920 Br  0  0  0  0  0  0  0  0  0  0  0  0
  -51.0920  -44.0940  -63.4770 C   0  0  0  0  0  3  0  0  0  0  0  0
  -50.6240  -43.0140  -64.2350 C   0  0  0  0  0  3  0  0  0  0  0  0
  -51.4950  -41.9920  -64.6120 C   0  0  0  0  0  0  0  0  0  0  0  0
  -50.8050  -40.6710  -65.4840 Cl  0  0  0  0  0  0  0  0  0  0  0  0
  -52.8450  -42.0580  -64.2360 C   0  0  0  0  0  0  0  0  0  0  0  0
  -53.8560  -41.0700  -64.6590 C   0  0  0  0  0  0  0  0  0  0  0  0
  -53.7700  -40.4760  -65.7270 O   0  0  0  0  0  0  0  0  0  0  0  0
  -55.0510  -40.8640  -63.7760 C   0  0  2  0  0  3  0  0  0  0  0  0
  -54.9610  -43.7730  -62.3650 H   0  0  0  0  0  0  0  0  0  0  0  0
  -56.8640  -42.0360  -61.9820 S   0  0  2  0  0  0  0  0  0  0  0  0
  -56.5690  -43.2430  -61.1340 O   0  0  0  0  0  0  0  0  0  0  0  0
  -58.4260  -42.3550  -62.8550 C   0  0  0  0  0  2  0  0  0  0  0  0
  -58.9220  -42.5900  -67.9460 C   0  0  0  0  0  1  0  0  0  0  0  0
  -58.6460  -42.6880  -66.5000 C   0  0  0  0  0  0  0  0  0  0  0  0
  -58.9910  -41.9420  -65.3980 C   0  0  0  0  0  3  0  0  0  0  0  0
  -58.4640  -42.6630  -64.3030 C   0  0  0  0  0  0  0  0  0  0  0  0
  -57.7840  -43.7410  -64.7320 N   0  0  0  0  0  0  0  0  0  0  0  0
  -57.9020  -43.7520  -66.1060 O   0  0  0  0  0  0  0  0  0  0  0  0
  -55.4150  -39.4310  -63.5860 C   0  0  0  0  0  0  0  0  0  0  0  0
  -56.5630  -39.0560  -63.7540 O   0  0  0  0  0  0  0  0  0  0  0  0
  -54.3740  -38.4850  -63.1430 C   0  0  0  0  0  3  0  0  0  0  0  0
  -54.7420  -37.0480  -62.8770 C   0  0  0  0  0  2  0  0  0  0  0  0
  -53.8770  -37.3860  -64.0530 C   0  0  0  0  0  2  0  0  0  0  0  0
  1  2  1  0  0  0  0
  1 15  1  1  0  0  0
  2 14  1  0  0  0  0
  3  2  1  0  0  0  0
  3  4  1  0  0  0  0
  4  5  1  0  0  0  0
  6  4  2  0  0  0  0
  7  6  1  0  0  0  0
  8 10  1  0  0  0  0
  8  7  2  0  0  0  0
  9  8  1  0  0  0  0
 10  3  2  0  0  0  0
 11 10  1  0  0  0  0
 11 13  1  0  0  0  0
 12 11  2  0  0  0  0
 13 24  1  1  0  0  0
 13  1  1  0  0  0  0
 15 16  2  1  0  0  0
 17 15  1  0  0  0  0
 18 19  1  0  0  0  0
 19 23  1  0  0  0  0
 19 20  2  0  0  0  0
 20 21  1  0  0  0  0
 21 17  1  0  0  0  0
 22 21  2  0  0  0  0
 23 22  1  0  0  0  0
 24 26  1  0  0  0  0
 25 24  2  0  0  0  0
 26 27  1  0  0  0  0
 28 26  1  0  0  0  0
 28 27  1  0  0  0  0
M  END
>  <MODEL>
1

>  <REMARK>
 VINA RESULT:    -7.231      0.000      0.000
 INTER + INTRA:         -10.302
 INTER:                  -9.345
 INTRA:                  -0.957
 UNBOUND:                -0.957
  Name = 
  6 active torsions:
  status: ('A' for Active; 'I' for Inactive)
    1  A    between atoms: C_1  and  C_2
    2  A    between atoms: C_4  and  C_5
    3  A    between atoms: C_5  and  S_6
    4  A    between atoms: S_6  and  C_8
    5  A    between atoms: C_20  and  C_21
    6  A    between atoms: C_21  and  C_23
                            x       y       z     vdW  Elec       q    Type
                         _______ _______ _______ _____ _____    ______ ____

>  <TORSDO>
F 5

$$$$
