REMARK VINA RESULT:    -6.241     13.373     15.632
REMARK INTER + INTRA:          -9.193
REMARK INTER:                  -8.022
REMARK INTRA:                  -1.171
REMARK UNBOUND:                -1.127
REMARK  Name = 
REMARK  8 active torsions:
REMARK  status: ('A' for Active; 'I' for Inactive)
REMARK    1  A    between atoms: C_1  and  C_2
REMARK    2  A    between atoms: C_4  and  C_5
REMARK    3  A    between atoms: C_5  and  S_6
REMARK    4  A    between atoms: S_6  and  C_8
REMARK    5  A    between atoms: C_20  and  C_21
REMARK    6  A    between atoms: C_21  and  C_23
REMARK    7  A    between atoms: C_23  and  C_24
REMARK    8  A    between atoms: C_23  and  C_25
REMARK                            x       y       z     vdW  Elec       q    Type
REMARK                         _______ _______ _______ _____ _____    ______ ____
ROOT
ATOM      1  C   UNL     1     -55.213 -42.670 -78.867  0.00  0.00    +0.000 A 
ATOM      2  N   UNL     1     -55.293 -44.060 -78.865  0.00  0.00    +0.000 N 
ATOM      3  C   UNL     1     -54.937 -44.819 -77.733  0.00  0.00    +0.000 A 
ATOM      4  C   UNL     1     -55.386 -46.139 -77.545  0.00  0.00    +0.000 A 
ATOM      5 BR   UNL     1     -56.638 -46.923 -78.735  0.00  0.00    +0.000 Br
ATOM      6  C   UNL     1     -54.954 -46.897 -76.452  0.00  0.00    +0.000 A 
ATOM      7  C   UNL     1     -54.072 -46.344 -75.529  0.00  0.00    +0.000 A 
ATOM      8  C   UNL     1     -53.617 -45.023 -75.694  0.00  0.00    +0.000 A 
ATOM      9 CL   UNL     1     -52.583 -44.423 -74.448  0.00  0.00    +0.000 Cl
ATOM     10  C   UNL     1     -54.047 -44.261 -76.801  0.00  0.00    +0.000 A 
ATOM     11  C   UNL     1     -53.600 -42.873 -77.082  0.00  0.00    +0.000 A 
ATOM     12  O   UNL     1     -52.533 -42.467 -76.631  0.00  0.00    +0.000 OA
ATOM     13  C   UNL     1     -54.483 -41.985 -77.955  0.00  0.00    +0.000 A 
ATOM     14  H   UNL     1     -56.063 -44.434 -79.436  0.00  0.00    +0.000 HD
ENDROOT
BRANCH   1  15
ATOM     15  S   UNL     1     -56.365 -41.933 -80.086  0.00  0.00    +0.000 S 
ATOM     16  O   UNL     1     -57.721 -42.393 -79.623  0.00  0.00    +0.000 OA
BRANCH  15  17
ATOM     17  C   UNL     1     -55.954 -42.807 -81.633  0.00  0.00    +0.000 C 
BRANCH  17  21
ATOM     18  C   UNL     1     -51.275 -41.617 -83.502  0.00  0.00    +0.000 C 
ATOM     19  C   UNL     1     -52.521 -42.125 -82.887  0.00  0.00    +0.000 A 
ATOM     20  C   UNL     1     -53.800 -41.640 -82.733  0.00  0.00    +0.000 A 
ATOM     21  C   UNL     1     -54.512 -42.677 -82.065  0.00  0.00    +0.000 A 
ATOM     22  N   UNL     1     -53.688 -43.710 -81.820  0.00  0.00    +0.000 NA
ATOM     23  O   UNL     1     -52.454 -43.364 -82.336  0.00  0.00    +0.000 OA
ENDBRANCH  17  21
ENDBRANCH  15  17
ENDBRANCH   1  15
BRANCH  13  24
ATOM     24  C   UNL     1     -54.454 -40.501 -77.663  0.00  0.00    +0.000 C 
ATOM     25  O   UNL     1     -55.291 -40.002 -76.912  0.00  0.00    +0.000 OA
BRANCH  24  26
ATOM     26  C   UNL     1     -53.428 -39.599 -78.349  0.00  0.00    +0.000 C 
ATOM     27  C   UNL     1     -53.987 -38.973 -79.624  0.00  0.00    +0.000 C 
ATOM     28  C   UNL     1     -52.904 -38.510 -77.409  0.00  0.00    +0.000 C 
ENDBRANCH  24  26
ENDBRANCH  13  24
TORSDOF 5
