REMARK VINA RESULT:    -7.094     10.129     12.487
REMARK INTER + INTRA:         -10.085
REMARK INTER:                  -9.141
REMARK INTRA:                  -0.945
REMARK UNBOUND:                -0.917
REMARK  Name = 
REMARK  6 active torsions:
REMARK  status: ('A' for Active; 'I' for Inactive)
REMARK    1  A    between atoms: C_1  and  C_2
REMARK    2  A    between atoms: C_4  and  C_5
REMARK    3  A    between atoms: C_5  and  S_6
REMARK    4  A    between atoms: S_6  and  C_8
REMARK    5  A    between atoms: C_20  and  C_21
REMARK    6  A    between atoms: C_21  and  C_23
REMARK                            x       y       z     vdW  Elec       q    Type
REMARK                         _______ _______ _______ _____ _____    ______ ____
ROOT
ATOM      1  C   UNL     1     -55.593 -41.911 -63.157  0.00  0.00    +0.000 A 
ATOM      2  N   UNL     1     -54.838 -43.098 -63.089  0.00  0.00    +0.000 N 
ATOM      3  C   UNL     1     -53.443 -43.085 -63.365  0.00  0.00    +0.000 A 
ATOM      4  C   UNL     1     -52.569 -44.107 -62.949  0.00  0.00    +0.000 A 
ATOM      5 BR   UNL     1     -53.167 -45.509 -61.820  0.00  0.00    +0.000 Br
ATOM      6  C   UNL     1     -51.222 -44.111 -63.337  0.00  0.00    +0.000 A 
ATOM      7  C   UNL     1     -50.726 -43.068 -64.128  0.00  0.00    +0.000 A 
ATOM      8  C   UNL     1     -51.573 -42.043 -64.550  0.00  0.00    +0.000 A 
ATOM      9 CL   UNL     1     -50.849 -40.768 -65.461  0.00  0.00    +0.000 Cl
ATOM     10  C   UNL     1     -52.928 -42.070 -64.186  0.00  0.00    +0.000 A 
ATOM     11  C   UNL     1     -53.915 -41.079 -64.654  0.00  0.00    +0.000 A 
ATOM     12  O   UNL     1     -53.807 -40.525 -65.741  0.00  0.00    +0.000 OA
ATOM     13  C   UNL     1     -55.114 -40.818 -63.791  0.00  0.00    +0.000 A 
ATOM     14  H   UNL     1     -55.094 -43.676 -62.277  0.00  0.00    +0.000 HD
ENDROOT
BRANCH   1  15
ATOM     15  S   UNL     1     -56.967 -41.891 -61.976  0.00  0.00    +0.000 S 
ATOM     16  O   UNL     1     -56.597 -42.938 -60.961  0.00  0.00    +0.000 OA
BRANCH  15  17
ATOM     17  C   UNL     1     -58.486 -42.446 -62.802  0.00  0.00    +0.000 C 
BRANCH  17  21
ATOM     18  C   UNL     1     -58.601 -42.794 -67.910  0.00  0.00    +0.000 C 
ATOM     19  C   UNL     1     -58.733 -42.560 -66.460  0.00  0.00    +0.000 A 
ATOM     20  C   UNL     1     -58.127 -43.076 -65.338  0.00  0.00    +0.000 A 
ATOM     21  C   UNL     1     -58.668 -42.330 -64.268  0.00  0.00    +0.000 A 
ATOM     22  N   UNL     1     -59.595 -41.466 -64.716  0.00  0.00    +0.000 NA
ATOM     23  O   UNL     1     -59.630 -41.613 -66.087  0.00  0.00    +0.000 OA
ENDBRANCH  17  21
ENDBRANCH  15  17
ENDBRANCH   1  15
BRANCH  13  24
ATOM     24  C   UNL     1     -55.452 -39.373 -63.656  0.00  0.00    +0.000 C 
ATOM     25  O   UNL     1     -56.579 -38.975 -63.895  0.00  0.00    +0.000 OA
BRANCH  24  26
ATOM     26  C   UNL     1     -54.412 -38.440 -63.181  0.00  0.00    +0.000 C 
ATOM     27  C   UNL     1     -54.732 -36.973 -63.058  0.00  0.00    +0.000 C 
ATOM     28  C   UNL     1     -53.776 -37.437 -64.113  0.00  0.00    +0.000 C 
ENDBRANCH  24  26
ENDBRANCH  13  24
TORSDOF 5
