REMARK VINA RESULT:    -6.330     14.783     16.220
REMARK INTER + INTRA:          -8.740
REMARK INTER:                  -7.793
REMARK INTRA:                  -0.947
REMARK UNBOUND:                -0.930
REMARK  Name = 
REMARK  6 active torsions:
REMARK  status: ('A' for Active; 'I' for Inactive)
REMARK    1  A    between atoms: C_1  and  C_2
REMARK    2  A    between atoms: C_2  and  C_4
REMARK    3  A    between atoms: C_5  and  S_6
REMARK    4  A    between atoms: S_6  and  C_8
REMARK    5  A    between atoms: C_8  and  C_9
REMARK    6  A    between atoms: C_11  and  C_12
REMARK                            x       y       z     vdW  Elec       q    Type
REMARK                         _______ _______ _______ _____ _____    ______ ____
ROOT
ATOM      1  C   UNL     1     -53.442 -41.186 -78.188  0.00  0.00    +0.000 A 
ATOM      2  C   UNL     1     -54.702 -41.669 -78.079  0.00  0.00    +0.000 A 
ATOM      3  N   UNL     1     -55.220 -42.646 -78.913  0.00  0.00    +0.000 N 
ATOM      4  C   UNL     1     -54.584 -42.984 -80.123  0.00  0.00    +0.000 A 
ATOM      5  C   UNL     1     -55.233 -43.771 -81.088  0.00  0.00    +0.000 A 
ATOM      6 BR   UNL     1     -57.016 -44.367 -80.824  0.00  0.00    +0.000 Br
ATOM      7  C   UNL     1     -54.589 -44.119 -82.273  0.00  0.00    +0.000 A 
ATOM      8  C   UNL     1     -53.282 -43.686 -82.502  0.00  0.00    +0.000 A 
ATOM      9  C   UNL     1     -52.603 -42.928 -81.535  0.00  0.00    +0.000 A 
ATOM     10 CL   UNL     1     -51.020 -42.394 -81.958  0.00  0.00    +0.000 Cl
ATOM     11  C   UNL     1     -53.247 -42.605 -80.331  0.00  0.00    +0.000 A 
ATOM     12  C   UNL     1     -52.589 -41.876 -79.212  0.00  0.00    +0.000 A 
ATOM     13  O   UNL     1     -51.368 -41.868 -79.097  0.00  0.00    +0.000 OA
ATOM     14  H   UNL     1     -56.242 -42.640 -78.972  0.00  0.00    +0.000 HD
ENDROOT
BRANCH   1  16
ATOM     15  C   UNL     1     -53.100 -38.634 -77.812  0.00  0.00    +0.000 C 
ATOM     16  C   UNL     1     -52.866 -40.067 -77.376  0.00  0.00    +0.000 C 
ATOM     17  O   UNL     1     -52.213 -40.294 -76.358  0.00  0.00    +0.000 OA
ENDBRANCH   1  16
BRANCH   2  18
ATOM     18  S   UNL     1     -55.905 -40.958 -76.907  0.00  0.00    +0.000 S 
ATOM     19  O   UNL     1     -57.132 -40.754 -77.755  0.00  0.00    +0.000 OA
BRANCH  18  20
ATOM     20  C   UNL     1     -56.207 -42.475 -75.923  0.00  0.00    +0.000 C 
BRANCH  20  21
ATOM     21  C   UNL     1     -54.978 -43.264 -75.612  0.00  0.00    +0.000 A 
ATOM     22  C   UNL     1     -53.858 -42.959 -74.797  0.00  0.00    +0.000 A 
ATOM     23  C   UNL     1     -53.090 -44.098 -74.816  0.00  0.00    +0.000 A 
ATOM     24  C   UNL     1     -51.810 -44.504 -74.205  0.00  0.00    +0.000 C 
ATOM     25  O   UNL     1     -53.709 -45.035 -75.580  0.00  0.00    +0.000 OA
ATOM     26  N   UNL     1     -54.891 -44.523 -76.074  0.00  0.00    +0.000 NA
ENDBRANCH  20  21
ENDBRANCH  18  20
ENDBRANCH   2  18
TORSDOF 4
