REMARK VINA RESULT:    -6.039     14.073     16.479
REMARK INTER + INTRA:          -8.802
REMARK INTER:                  -8.307
REMARK INTRA:                  -0.495
REMARK UNBOUND:                -0.998
REMARK  Name = 
REMARK  6 active torsions:
REMARK  status: ('A' for Active; 'I' for Inactive)
REMARK    1  A    between atoms: C_1  and  C_2
REMARK    2  A    between atoms: C_4  and  C_5
REMARK    3  A    between atoms: C_5  and  S_6
REMARK    4  A    between atoms: S_6  and  C_8
REMARK    5  A    between atoms: C_20  and  C_21
REMARK    6  A    between atoms: C_21  and  C_23
REMARK                            x       y       z     vdW  Elec       q    Type
REMARK                         _______ _______ _______ _____ _____    ______ ____
ROOT
ATOM      1  C   UNL     1     -54.339 -41.581 -79.121  0.00  0.00    +0.000 A 
ATOM      2  N   UNL     1     -55.649 -41.957 -79.477  0.00  0.00    +0.000 N 
ATOM      3  C   UNL     1     -56.762 -41.518 -78.709  0.00  0.00    +0.000 A 
ATOM      4  C   UNL     1     -58.081 -41.516 -79.200  0.00  0.00    +0.000 A 
ATOM      5 BR   UNL     1     -58.452 -41.938 -81.011  0.00  0.00    +0.000 Br
ATOM      6  C   UNL     1     -59.162 -41.179 -78.373  0.00  0.00    +0.000 A 
ATOM      7  C   UNL     1     -58.928 -40.810 -77.043  0.00  0.00    +0.000 A 
ATOM      8  C   UNL     1     -57.629 -40.803 -76.535  0.00  0.00    +0.000 A 
ATOM      9 CL   UNL     1     -57.440 -40.265 -74.905  0.00  0.00    +0.000 Cl
ATOM     10  C   UNL     1     -56.559 -41.177 -77.362  0.00  0.00    +0.000 A 
ATOM     11  C   UNL     1     -55.165 -41.282 -76.890  0.00  0.00    +0.000 A 
ATOM     12  O   UNL     1     -54.897 -41.582 -75.733  0.00  0.00    +0.000 OA
ATOM     13  C   UNL     1     -54.067 -41.087 -77.893  0.00  0.00    +0.000 A 
ATOM     14  H   UNL     1     -55.804 -41.914 -80.493  0.00  0.00    +0.000 HD
ENDROOT
BRANCH   1  15
ATOM     15  S   UNL     1     -53.249 -41.410 -80.559  0.00  0.00    +0.000 S 
ATOM     16  O   UNL     1     -54.022 -40.534 -81.506  0.00  0.00    +0.000 OA
BRANCH  15  17
ATOM     17  C   UNL     1     -53.044 -43.028 -81.360  0.00  0.00    +0.000 C 
BRANCH  17  21
ATOM     18  C   UNL     1     -49.681 -42.820 -85.215  0.00  0.00    +0.000 C 
ATOM     19  C   UNL     1     -50.634 -43.092 -84.123  0.00  0.00    +0.000 A 
ATOM     20  C   UNL     1     -51.308 -42.313 -83.212  0.00  0.00    +0.000 A 
ATOM     21  C   UNL     1     -52.135 -43.220 -82.513  0.00  0.00    +0.000 A 
ATOM     22  N   UNL     1     -51.915 -44.479 -82.933  0.00  0.00    +0.000 NA
ATOM     23  O   UNL     1     -50.977 -44.392 -83.941  0.00  0.00    +0.000 OA
ENDBRANCH  17  21
ENDBRANCH  15  17
ENDBRANCH   1  15
BRANCH  13  24
ATOM     24  C   UNL     1     -52.948 -40.235 -77.399  0.00  0.00    +0.000 C 
ATOM     25  O   UNL     1     -53.120 -39.045 -77.194  0.00  0.00    +0.000 OA
BRANCH  24  26
ATOM     26  C   UNL     1     -51.644 -40.865 -77.117  0.00  0.00    +0.000 C 
ATOM     27  C   UNL     1     -51.494 -41.746 -75.904  0.00  0.00    +0.000 C 
ATOM     28  C   UNL     1     -50.797 -40.420 -75.949  0.00  0.00    +0.000 C 
ENDBRANCH  24  26
ENDBRANCH  13  24
TORSDOF 5
