=
 OpenBabel09162515003D

 28 30  0  0  0  0  0  0  0  0999 V2000
  -55.7550  -42.6590  -76.6650 C   0  0  0  0  0  0  0  0  0  0  0  0
  -54.4250  -42.9720  -76.3920 N   0  0  0  0  0  0  0  0  0  0  0  0
  -53.4310  -41.9740  -76.3140 C   0  0  0  0  0  0  0  0  0  0  0  0
  -52.1960  -42.1970  -75.6740 C   0  0  0  0  0  0  0  0  0  0  0  0
  -51.9040  -43.6620  -74.8050 Cl  0  0  0  0  0  0  0  0  0  0  0  0
  -51.1880  -41.2330  -75.7000 C   0  0  0  0  0  3  0  0  0  0  0  0
  -51.4040  -40.0260  -76.3680 C   0  0  0  0  0  3  0  0  0  0  0  0
  -52.6310  -39.7800  -76.9980 C   0  0  0  0  0  0  0  0  0  0  0  0
  -52.8040  -38.2280  -77.7320 Cl  0  0  0  0  0  0  0  0  0  0  0  0
  -53.6360  -40.7580  -76.9810 C   0  0  0  0  0  0  0  0  0  0  0  0
  -54.9410  -40.6390  -77.6810 C   0  0  0  0  0  0  0  0  0  0  0  0
  -55.0200  -39.9400  -78.6830 O   0  0  0  0  0  0  0  0  0  0  0  0
  -56.1290  -41.4580  -77.1900 C   0  0  0  0  0  0  0  0  0  0  0  0
  -54.3140  -43.7560  -75.7360 H   0  0  0  0  0  0  0  0  0  0  0  0
  -56.8880  -43.9470  -76.0050 S   0  0  2  0  0  0  0  0  0  0  0  0
  -57.5440  -44.5100  -77.2370 O   0  0  0  0  0  0  0  0  0  0  0  0
  -58.1540  -42.9560  -75.1110 C   0  0  0  0  0  2  0  0  0  0  0  0
  -55.7780  -41.4480  -70.7740 C   0  0  0  0  0  1  0  0  0  0  0  0
  -56.6250  -41.7830  -71.9380 C   0  0  0  0  0  0  0  0  0  0  0  0
  -56.4020  -42.3230  -73.1830 C   0  0  0  0  0  3  0  0  0  0  0  0
  -57.6900  -42.4120  -73.7830 C   0  0  0  0  0  0  0  0  0  0  0  0
  -58.6190  -41.9180  -72.9480 N   0  0  0  0  0  0  0  0  0  0  0  0
  -57.9530  -41.5340  -71.8000 O   0  0  0  0  0  0  0  0  0  0  0  0
  -57.4750  -40.7840  -77.3560 C   0  0  0  0  0  0  0  0  0  0  0  0
  -57.7770  -39.8250  -76.6340 O   0  0  0  0  0  0  0  0  0  0  0  0
  -58.5470  -41.3340  -78.2790 C   0  0  0  0  0  3  0  0  0  0  0  0
  -59.6610  -40.3160  -78.4330 C   0  0  0  0  0  1  0  0  0  0  0  0
  -57.9610  -41.8030  -79.6050 C   0  0  0  0  0  1  0  0  0  0  0  0
  1  2  1  0  0  0  0
  1 15  1  0  0  0  0
  2  3  1  0  0  0  0
  2 14  1  0  0  0  0
  3  4  1  0  0  0  0
  4  5  1  0  0  0  0
  6  4  2  0  0  0  0
  7  6  1  0  0  0  0
  8 10  1  0  0  0  0
  8  7  2  0  0  0  0
  9  8  1  0  0  0  0
 10  3  2  0  0  0  0
 11 13  1  0  0  0  0
 11 10  1  0  0  0  0
 12 11  2  0  0  0  0
 13  1  2  0  0  0  0
 15 16  2  6  0  0  0
 15 17  1  0  0  0  0
 17 21  1  0  0  0  0
 19 23  1  0  0  0  0
 19 18  1  0  0  0  0
 20 19  2  0  0  0  0
 21 20  1  0  0  0  0
 21 22  2  0  0  0  0
 22 23  1  0  0  0  0
 24 13  1  0  0  0  0
 24 25  2  0  0  0  0
 26 24  1  0  0  0  0
 27 26  1  0  0  0  0
 28 26  1  0  0  0  0
M  END
>  <MODEL>
1

>  <REMARK>
 VINA RESULT:    -7.536      0.000      0.000
 INTER + INTRA:         -10.664
 INTER:                  -9.739
 INTRA:                  -0.925
 UNBOUND:                -0.925
  Name = 
  8 active torsions:
  status: ('A' for Active; 'I' for Inactive)
    1  A    between atoms: C_1  and  C_2
    2  A    between atoms: C_4  and  C_5
    3  A    between atoms: C_5  and  S_6
    4  A    between atoms: S_6  and  C_8
    5  A    between atoms: C_20  and  C_21
    6  A    between atoms: C_21  and  C_23
    7  A    between atoms: C_23  and  C_24
    8  A    between atoms: C_23  and  C_25
                            x       y       z     vdW  Elec       q    Type
                         _______ _______ _______ _____ _____    ______ ____

>  <TORSDO>
F 5

$$$$
