REMARK VINA RESULT:    -4.735     16.833     18.860
REMARK INTER + INTRA:          -7.029
REMARK INTER:                  -6.003
REMARK INTRA:                  -1.025
REMARK UNBOUND:                -0.910
REMARK  Name = 
REMARK  6 active torsions:
REMARK  status: ('A' for Active; 'I' for Inactive)
REMARK    1  A    between atoms: C_1  and  C_2
REMARK    2  A    between atoms: C_4  and  C_5
REMARK    3  A    between atoms: C_5  and  S_6
REMARK    4  A    between atoms: S_6  and  C_8
REMARK    5  A    between atoms: C_20  and  C_21
REMARK    6  A    between atoms: C_21  and  C_23
REMARK                            x       y       z     vdW  Elec       q    Type
REMARK                         _______ _______ _______ _____ _____    ______ ____
ROOT
ATOM      1  C   UNL     1     -48.701 -58.347 -77.651  0.00  0.00    +0.000 A 
ATOM      2  N   UNL     1     -47.811 -57.860 -76.674  0.00  0.00    +0.000 N 
ATOM      3  C   UNL     1     -47.410 -58.683 -75.586  0.00  0.00    +0.000 A 
ATOM      4  C   UNL     1     -46.263 -58.429 -74.812  0.00  0.00    +0.000 A 
ATOM      5 BR   UNL     1     -45.050 -57.048 -75.284  0.00  0.00    +0.000 Br
ATOM      6  C   UNL     1     -45.964 -59.201 -73.681  0.00  0.00    +0.000 A 
ATOM      7  C   UNL     1     -46.805 -60.263 -73.327  0.00  0.00    +0.000 A 
ATOM      8  C   UNL     1     -47.947 -60.536 -74.079  0.00  0.00    +0.000 A 
ATOM      9 CL   UNL     1     -48.878 -61.910 -73.602  0.00  0.00    +0.000 Cl
ATOM     10  C   UNL     1     -48.254 -59.733 -75.188  0.00  0.00    +0.000 A 
ATOM     11  C   UNL     1     -49.482 -59.891 -75.991  0.00  0.00    +0.000 A 
ATOM     12  O   UNL     1     -50.524 -60.306 -75.501  0.00  0.00    +0.000 OA
ATOM     13  C   UNL     1     -49.446 -59.451 -77.425  0.00  0.00    +0.000 A 
ATOM     14  H   UNL     1     -47.042 -57.314 -77.085  0.00  0.00    +0.000 HD
ENDROOT
BRANCH   1  15
ATOM     15  S   UNL     1     -48.391 -57.638 -79.290  0.00  0.00    +0.000 S 
ATOM     16  O   UNL     1     -47.208 -56.731 -79.083  0.00  0.00    +0.000 OA
BRANCH  15  17
ATOM     17  C   UNL     1     -49.797 -56.595 -79.775  0.00  0.00    +0.000 C 
BRANCH  17  21
ATOM     18  C   UNL     1     -50.270 -52.043 -77.477  0.00  0.00    +0.000 C 
ATOM     19  C   UNL     1     -50.055 -53.245 -78.304  0.00  0.00    +0.000 A 
ATOM     20  C   UNL     1     -50.181 -54.598 -78.095  0.00  0.00    +0.000 A 
ATOM     21  C   UNL     1     -49.904 -55.179 -79.353  0.00  0.00    +0.000 A 
ATOM     22  N   UNL     1     -49.563 -54.232 -80.245  0.00  0.00    +0.000 NA
ATOM     23  O   UNL     1     -49.661 -53.026 -79.584  0.00  0.00    +0.000 OA
ENDBRANCH  17  21
ENDBRANCH  15  17
ENDBRANCH   1  15
BRANCH  13  24
ATOM     24  C   UNL     1     -50.096 -60.411 -78.363  0.00  0.00    +0.000 C 
ATOM     25  O   UNL     1     -51.217 -60.196 -78.791  0.00  0.00    +0.000 OA
BRANCH  24  26
ATOM     26  C   UNL     1     -49.341 -61.600 -78.800  0.00  0.00    +0.000 C 
ATOM     27  C   UNL     1     -47.839 -61.528 -78.904  0.00  0.00    +0.000 C 
ATOM     28  C   UNL     1     -48.664 -61.645 -80.149  0.00  0.00    +0.000 C 
ENDBRANCH  24  26
ENDBRANCH  13  24
TORSDOF 5
