=
 OpenBabel09162515213D

 26 28  0  0  0  0  0  0  0  0999 V2000
  -55.4970  -41.5560  -77.7750 C   0  0  0  0  0  0  0  0  0  0  0  0
  -55.1860  -42.7050  -77.1300 C   0  0  0  0  0  0  0  0  0  0  0  0
  -54.0630  -42.8510  -76.3350 N   0  0  0  0  0  0  0  0  0  0  0  0
  -53.0370  -41.8880  -76.2940 C   0  0  0  0  0  0  0  0  0  0  0  0
  -51.8600  -42.1170  -75.5580 C   0  0  0  0  0  0  0  0  0  0  0  0
  -51.5810  -43.7610  -74.6470 Br  0  0  0  0  0  0  0  0  0  0  0  0
  -50.8600  -41.1500  -75.4800 C   0  0  0  0  0  3  0  0  0  0  0  0
  -51.0270  -39.9340  -76.1360 C   0  0  0  0  0  3  0  0  0  0  0  0
  -52.2010  -39.6710  -76.8520 C   0  0  0  0  0  0  0  0  0  0  0  0
  -52.2490  -38.1310  -77.6380 Cl  0  0  0  0  0  0  0  0  0  0  0  0
  -53.2220  -40.6400  -76.9120 C   0  0  0  0  0  0  0  0  0  0  0  0
  -54.5140  -40.4240  -77.6200 C   0  0  0  0  0  0  0  0  0  0  0  0
  -54.7620  -39.3250  -78.0980 O   0  0  0  0  0  0  0  0  0  0  0  0
  -53.7470  -43.8150  -76.2110 H   0  0  0  0  0  0  0  0  0  0  0  0
  -56.6710  -41.7500  -80.0990 C   0  0  0  0  0  1  0  0  0  0  0  0
  -56.7210  -41.3630  -78.6350 C   0  0  0  0  0  0  0  0  0  0  0  0
  -57.7650  -40.8920  -78.1800 O   0  0  0  0  0  0  0  0  0  0  0  0
  -56.1400  -44.2480  -77.3940 S   0  0  1  0  0  0  0  0  0  0  0  0
  -55.0720  -45.2620  -77.7060 O   0  0  0  0  0  0  0  0  0  0  0  0
  -56.6570  -44.5750  -75.6720 C   0  0  0  0  0  2  0  0  0  0  0  0
  -57.2720  -43.3750  -75.0200 C   0  0  0  0  0  0  0  0  0  0  0  0
  -56.8230  -42.6240  -73.9020 C   0  0  0  0  0  3  0  0  0  0  0  0
  -57.6950  -41.5650  -73.8180 C   0  0  0  0  0  0  0  0  0  0  0  0
  -57.8220  -40.3860  -72.9400 C   0  0  0  0  0  1  0  0  0  0  0  0
  -58.6210  -41.6800  -74.8120 O   0  0  0  0  0  0  0  0  0  0  0  0
  -58.3540  -42.8060  -75.5690 N   0  0  0  0  0  0  0  0  0  0  0  0
  1 12  1  0  0  0  0
  1  2  2  0  0  0  0
  2  3  1  0  0  0  0
  3  4  1  0  0  0  0
  3 14  1  0  0  0  0
  4  5  1  0  0  0  0
  5  7  2  0  0  0  0
  5  6  1  0  0  0  0
  8  7  1  0  0  0  0
  9  8  2  0  0  0  0
 10  9  1  0  0  0  0
 11  9  1  0  0  0  0
 11  4  2  0  0  0  0
 12 11  1  0  0  0  0
 13 12  2  0  0  0  0
 15 16  1  0  0  0  0
 16 17  2  0  0  0  0
 16  1  1  0  0  0  0
 18 19  2  1  0  0  0
 18  2  1  0  0  0  0
 18 20  1  0  0  0  0
 20 21  1  0  0  0  0
 21 22  1  0  0  0  0
 22 23  2  0  0  0  0
 23 24  1  0  0  0  0
 25 23  1  0  0  0  0
 26 21  2  0  0  0  0
 26 25  1  0  0  0  0
M  END
>  <MODEL>
1

>  <REMARK>
 VINA RESULT:    -6.273      0.000      0.000
 INTER + INTRA:          -8.710
 INTER:                  -7.740
 INTRA:                  -0.971
 UNBOUND:                -0.971
  Name = 
  6 active torsions:
  status: ('A' for Active; 'I' for Inactive)
    1  A    between atoms: C_1  and  C_2
    2  A    between atoms: C_2  and  C_4
    3  A    between atoms: C_5  and  S_6
    4  A    between atoms: S_6  and  C_8
    5  A    between atoms: C_8  and  C_9
    6  A    between atoms: C_11  and  C_12
                            x       y       z     vdW  Elec       q    Type
                         _______ _______ _______ _____ _____    ______ ____

>  <TORSDO>
F 4

$$$$
