REMARK VINA RESULT:    -4.597     11.517     13.529
REMARK INTER + INTRA:          -6.675
REMARK INTER:                  -5.866
REMARK INTRA:                  -0.809
REMARK UNBOUND:                -1.003
REMARK  Name = 
REMARK  6 active torsions:
REMARK  status: ('A' for Active; 'I' for Inactive)
REMARK    1  A    between atoms: C_1  and  C_2
REMARK    2  A    between atoms: C_2  and  C_4
REMARK    3  A    between atoms: C_5  and  S_6
REMARK    4  A    between atoms: S_6  and  C_8
REMARK    5  A    between atoms: C_8  and  C_9
REMARK    6  A    between atoms: C_11  and  C_12
REMARK                            x       y       z     vdW  Elec       q    Type
REMARK                         _______ _______ _______ _____ _____    ______ ____
ROOT
ATOM      1  C   UNL     1     -65.936 -42.279 -71.485  0.00  0.00    +0.000 A 
ATOM      2  C   UNL     1     -66.240 -41.914 -70.219  0.00  0.00    +0.000 A 
ATOM      3  N   UNL     1     -65.282 -41.604 -69.272  0.00  0.00    +0.000 N 
ATOM      4  C   UNL     1     -63.906 -41.804 -69.485  0.00  0.00    +0.000 A 
ATOM      5  C   UNL     1     -62.969 -41.551 -68.468  0.00  0.00    +0.000 A 
ATOM      6 BR   UNL     1     -63.535 -41.010 -66.735  0.00  0.00    +0.000 Br
ATOM      7  C   UNL     1     -61.602 -41.696 -68.694  0.00  0.00    +0.000 A 
ATOM      8  C   UNL     1     -61.152 -42.089 -69.947  0.00  0.00    +0.000 A 
ATOM      9  C   UNL     1     -62.061 -42.326 -70.989  0.00  0.00    +0.000 A 
ATOM     10 CL   UNL     1     -61.347 -42.818 -72.485  0.00  0.00    +0.000 Cl
ATOM     11  C   UNL     1     -63.445 -42.171 -70.762  0.00  0.00    +0.000 A 
ATOM     12  C   UNL     1     -64.469 -42.411 -71.809  0.00  0.00    +0.000 A 
ATOM     13  O   UNL     1     -64.127 -42.756 -72.928  0.00  0.00    +0.000 OA
ATOM     14  H   UNL     1     -65.584 -41.686 -68.300  0.00  0.00    +0.000 HD
ENDROOT
BRANCH   1  16
ATOM     15  C   UNL     1     -67.546 -41.481 -73.381  0.00  0.00    +0.000 C 
ATOM     16  C   UNL     1     -66.957 -42.602 -72.556  0.00  0.00    +0.000 C 
ATOM     17  O   UNL     1     -67.326 -43.758 -72.768  0.00  0.00    +0.000 OA
ENDBRANCH   1  16
BRANCH   2  18
ATOM     18  S   UNL     1     -67.953 -41.972 -69.596  0.00  0.00    +0.000 S 
ATOM     19  O   UNL     1     -68.001 -43.263 -68.823  0.00  0.00    +0.000 OA
BRANCH  18  20
ATOM     20  C   UNL     1     -67.871 -40.638 -68.347  0.00  0.00    +0.000 C 
BRANCH  20  21
ATOM     21  C   UNL     1     -68.300 -41.095 -66.989  0.00  0.00    +0.000 A 
ATOM     22  C   UNL     1     -67.526 -41.477 -65.862  0.00  0.00    +0.000 A 
ATOM     23  C   UNL     1     -68.449 -41.785 -64.891  0.00  0.00    +0.000 A 
ATOM     24  C   UNL     1     -68.370 -42.292 -63.509  0.00  0.00    +0.000 C 
ATOM     25  O   UNL     1     -69.696 -41.565 -65.384  0.00  0.00    +0.000 OA
ATOM     26  N   UNL     1     -69.609 -41.126 -66.693  0.00  0.00    +0.000 NA
ENDBRANCH  20  21
ENDBRANCH  18  20
ENDBRANCH   2  18
TORSDOF 4
