REMARK VINA RESULT:    -5.435     11.177     13.814
REMARK INTER + INTRA:          -7.943
REMARK INTER:                  -6.645
REMARK INTRA:                  -1.299
REMARK UNBOUND:                -0.920
REMARK  Name = 
REMARK  8 active torsions:
REMARK  status: ('A' for Active; 'I' for Inactive)
REMARK    1  A    between atoms: C_1  and  C_2
REMARK    2  A    between atoms: C_4  and  C_5
REMARK    3  A    between atoms: C_5  and  S_6
REMARK    4  A    between atoms: S_6  and  C_8
REMARK    5  A    between atoms: C_20  and  C_21
REMARK    6  A    between atoms: C_21  and  C_23
REMARK    7  A    between atoms: C_23  and  C_24
REMARK    8  A    between atoms: C_23  and  C_25
REMARK                            x       y       z     vdW  Elec       q    Type
REMARK                         _______ _______ _______ _____ _____    ______ ____
ROOT
ATOM      1  C   UNL     1     -67.389 -40.748 -68.492  0.00  0.00    +0.000 A 
ATOM      2  N   UNL     1     -66.391 -40.307 -69.355  0.00  0.00    +0.000 N 
ATOM      3  C   UNL     1     -65.028 -40.381 -69.008  0.00  0.00    +0.000 A 
ATOM      4  C   UNL     1     -64.005 -40.345 -69.975  0.00  0.00    +0.000 A 
ATOM      5 BR   UNL     1     -64.413 -40.357 -71.827  0.00  0.00    +0.000 Br
ATOM      6  C   UNL     1     -62.659 -40.342 -69.598  0.00  0.00    +0.000 A 
ATOM      7  C   UNL     1     -62.315 -40.380 -68.250  0.00  0.00    +0.000 A 
ATOM      8  C   UNL     1     -63.322 -40.424 -67.268  0.00  0.00    +0.000 A 
ATOM      9 CL   UNL     1     -62.773 -40.541 -65.635  0.00  0.00    +0.000 Cl
ATOM     10  C   UNL     1     -64.680 -40.420 -67.648  0.00  0.00    +0.000 A 
ATOM     11  C   UNL     1     -65.815 -40.432 -66.689  0.00  0.00    +0.000 A 
ATOM     12  O   UNL     1     -65.657 -40.019 -65.544  0.00  0.00    +0.000 OA
ATOM     13  C   UNL     1     -67.170 -40.943 -67.170  0.00  0.00    +0.000 A 
ATOM     14  H   UNL     1     -66.611 -40.442 -70.352  0.00  0.00    +0.000 HD
ENDROOT
BRANCH   1  15
ATOM     15  S   UNL     1     -68.906 -41.220 -69.405  0.00  0.00    +0.000 S 
ATOM     16  O   UNL     1     -70.003 -41.057 -68.388  0.00  0.00    +0.000 OA
BRANCH  15  17
ATOM     17  C   UNL     1     -68.670 -43.002 -69.719  0.00  0.00    +0.000 C 
BRANCH  17  21
ATOM     18  C   UNL     1     -63.730 -44.534 -69.943  0.00  0.00    +0.000 C 
ATOM     19  C   UNL     1     -65.126 -44.067 -70.083  0.00  0.00    +0.000 A 
ATOM     20  C   UNL     1     -66.215 -43.983 -69.245  0.00  0.00    +0.000 A 
ATOM     21  C   UNL     1     -67.247 -43.401 -70.035  0.00  0.00    +0.000 A 
ATOM     22  N   UNL     1     -66.795 -43.175 -71.281  0.00  0.00    +0.000 NA
ATOM     23  O   UNL     1     -65.476 -43.587 -71.304  0.00  0.00    +0.000 OA
ENDBRANCH  17  21
ENDBRANCH  15  17
ENDBRANCH   1  15
BRANCH  13  24
ATOM     24  C   UNL     1     -68.046 -41.618 -66.138  0.00  0.00    +0.000 C 
ATOM     25  O   UNL     1     -68.222 -42.835 -66.176  0.00  0.00    +0.000 OA
BRANCH  24  26
ATOM     26  C   UNL     1     -68.773 -40.787 -65.080  0.00  0.00    +0.000 C 
ATOM     27  C   UNL     1     -69.153 -39.406 -65.607  0.00  0.00    +0.000 C 
ATOM     28  C   UNL     1     -70.011 -41.508 -64.538  0.00  0.00    +0.000 C 
ENDBRANCH  24  26
ENDBRANCH  13  24
TORSDOF 5
