REMARK VINA RESULT:    -5.853      2.489      3.538
REMARK INTER + INTRA:          -8.719
REMARK INTER:                  -7.980
REMARK INTRA:                  -0.739
REMARK UNBOUND:                -1.155
REMARK  Name = 
REMARK  6 active torsions:
REMARK  status: ('A' for Active; 'I' for Inactive)
REMARK    1  A    between atoms: C_1  and  C_2
REMARK    2  A    between atoms: C_4  and  C_5
REMARK    3  A    between atoms: C_5  and  S_6
REMARK    4  A    between atoms: S_6  and  C_8
REMARK    5  A    between atoms: C_20  and  C_21
REMARK    6  A    between atoms: C_21  and  C_23
REMARK                            x       y       z     vdW  Elec       q    Type
REMARK                         _______ _______ _______ _____ _____    ______ ____
ROOT
ATOM      1  C   UNL     1     -55.931 -41.811 -62.760  0.00  0.00    +0.000 A 
ATOM      2  N   UNL     1     -55.124 -42.956 -62.906  0.00  0.00    +0.000 N 
ATOM      3  C   UNL     1     -53.771 -42.838 -63.327  0.00  0.00    +0.000 A 
ATOM      4  C   UNL     1     -52.813 -43.850 -63.125  0.00  0.00    +0.000 A 
ATOM      5 BR   UNL     1     -53.222 -45.394 -62.102  0.00  0.00    +0.000 Br
ATOM      6  C   UNL     1     -51.519 -43.739 -63.652  0.00  0.00    +0.000 A 
ATOM      7  C   UNL     1     -51.159 -42.592 -64.369  0.00  0.00    +0.000 A 
ATOM      8  C   UNL     1     -52.091 -41.575 -64.581  0.00  0.00    +0.000 A 
ATOM      9 CL   UNL     1     -51.527 -40.172 -65.415  0.00  0.00    +0.000 Cl
ATOM     10  C   UNL     1     -53.393 -41.714 -64.078  0.00  0.00    +0.000 A 
ATOM     11  C   UNL     1     -54.468 -40.733 -64.324  0.00  0.00    +0.000 A 
ATOM     12  O   UNL     1     -54.506 -40.062 -65.348  0.00  0.00    +0.000 OA
ATOM     13  C   UNL     1     -55.572 -40.632 -63.315  0.00  0.00    +0.000 A 
ATOM     14  H   UNL     1     -55.263 -43.630 -62.142  0.00  0.00    +0.000 HD
ENDROOT
BRANCH   1  15
ATOM     15  S   UNL     1     -57.163 -41.991 -61.443  0.00  0.00    +0.000 S 
ATOM     16  O   UNL     1     -56.474 -42.834 -60.406  0.00  0.00    +0.000 OA
BRANCH  15  17
ATOM     17  C   UNL     1     -58.580 -42.944 -62.065  0.00  0.00    +0.000 C 
BRANCH  17  21
ATOM     18  C   UNL     1     -62.638 -44.490 -59.353  0.00  0.00    +0.000 C 
ATOM     19  C   UNL     1     -61.507 -43.852 -60.051  0.00  0.00    +0.000 A 
ATOM     20  C   UNL     1     -60.486 -44.305 -60.853  0.00  0.00    +0.000 A 
ATOM     21  C   UNL     1     -59.809 -43.134 -61.260  0.00  0.00    +0.000 A 
ATOM     22  N   UNL     1     -60.350 -42.050 -60.678  0.00  0.00    +0.000 NA
ATOM     23  O   UNL     1     -61.412 -42.504 -59.925  0.00  0.00    +0.000 OA
ENDBRANCH  17  21
ENDBRANCH  15  17
ENDBRANCH   1  15
BRANCH  13  24
ATOM     24  C   UNL     1     -55.953 -39.229 -62.982  0.00  0.00    +0.000 C 
ATOM     25  O   UNL     1     -57.080 -38.823 -63.208  0.00  0.00    +0.000 OA
BRANCH  24  26
ATOM     26  C   UNL     1     -54.958 -38.357 -62.331  0.00  0.00    +0.000 C 
ATOM     27  C   UNL     1     -55.268 -36.895 -62.136  0.00  0.00    +0.000 C 
ATOM     28  C   UNL     1     -54.208 -37.305 -63.113  0.00  0.00    +0.000 C 
ENDBRANCH  24  26
ENDBRANCH  13  24
TORSDOF 5
