REMARK VINA RESULT:    -5.968     12.108     14.300
REMARK INTER + INTRA:          -8.575
REMARK INTER:                  -7.815
REMARK INTRA:                  -0.761
REMARK UNBOUND:                -0.863
REMARK  Name = 
REMARK  6 active torsions:
REMARK  status: ('A' for Active; 'I' for Inactive)
REMARK    1  A    between atoms: C_1  and  C_2
REMARK    2  A    between atoms: C_4  and  C_5
REMARK    3  A    between atoms: C_5  and  S_6
REMARK    4  A    between atoms: S_6  and  C_8
REMARK    5  A    between atoms: C_20  and  C_21
REMARK    6  A    between atoms: C_21  and  C_23
REMARK                            x       y       z     vdW  Elec       q    Type
REMARK                         _______ _______ _______ _____ _____    ______ ____
ROOT
ATOM      1  C   UNL     1     -56.893 -37.899 -62.561  0.00  0.00    +0.000 A 
ATOM      2  N   UNL     1     -57.207 -39.148 -63.131  0.00  0.00    +0.000 N 
ATOM      3  C   UNL     1     -56.182 -39.985 -63.650  0.00  0.00    +0.000 A 
ATOM      4  C   UNL     1     -56.353 -41.365 -63.868  0.00  0.00    +0.000 A 
ATOM      5 BR   UNL     1     -57.932 -42.255 -63.308  0.00  0.00    +0.000 Br
ATOM      6  C   UNL     1     -55.355 -42.131 -64.484  0.00  0.00    +0.000 A 
ATOM      7  C   UNL     1     -54.153 -41.525 -64.866  0.00  0.00    +0.000 A 
ATOM      8  C   UNL     1     -53.959 -40.159 -64.659  0.00  0.00    +0.000 A 
ATOM      9 CL   UNL     1     -52.415 -39.521 -65.099  0.00  0.00    +0.000 Cl
ATOM     10  C   UNL     1     -54.980 -39.395 -64.074  0.00  0.00    +0.000 A 
ATOM     11  C   UNL     1     -54.900 -37.933 -63.894  0.00  0.00    +0.000 A 
ATOM     12  O   UNL     1     -54.262 -37.222 -64.661  0.00  0.00    +0.000 OA
ATOM     13  C   UNL     1     -55.693 -37.317 -62.779  0.00  0.00    +0.000 A 
ATOM     14  H   UNL     1     -57.921 -39.654 -62.589  0.00  0.00    +0.000 HD
ENDROOT
BRANCH   1  15
ATOM     15  S   UNL     1     -58.027 -37.438 -61.224  0.00  0.00    +0.000 S 
ATOM     16  O   UNL     1     -58.373 -38.746 -60.566  0.00  0.00    +0.000 OA
BRANCH  15  17
ATOM     17  C   UNL     1     -59.558 -36.764 -61.933  0.00  0.00    +0.000 C 
BRANCH  17  21
ATOM     18  C   UNL     1     -59.085 -31.901 -63.463  0.00  0.00    +0.000 C 
ATOM     19  C   UNL     1     -59.431 -33.273 -63.048  0.00  0.00    +0.000 A 
ATOM     20  C   UNL     1     -58.707 -34.396 -62.722  0.00  0.00    +0.000 A 
ATOM     21  C   UNL     1     -59.679 -35.341 -62.325  0.00  0.00    +0.000 A 
ATOM     22  N   UNL     1     -60.916 -34.836 -62.473  0.00  0.00    +0.000 NA
ATOM     23  O   UNL     1     -60.755 -33.543 -62.924  0.00  0.00    +0.000 OA
ENDBRANCH  17  21
ENDBRANCH  15  17
ENDBRANCH   1  15
BRANCH  13  24
ATOM     24  C   UNL     1     -54.940 -36.289 -62.005  0.00  0.00    +0.000 C 
ATOM     25  O   UNL     1     -54.310 -36.601 -61.010  0.00  0.00    +0.000 OA
BRANCH  24  26
ATOM     26  C   UNL     1     -54.933 -34.896 -62.492  0.00  0.00    +0.000 C 
ATOM     27  C   UNL     1     -53.880 -33.942 -61.991  0.00  0.00    +0.000 C 
ATOM     28  C   UNL     1     -55.310 -33.748 -61.587  0.00  0.00    +0.000 C 
ENDBRANCH  24  26
ENDBRANCH  13  24
TORSDOF 5
