REMARK VINA RESULT:    -7.236      0.000      0.000
REMARK INTER + INTRA:          -9.452
REMARK INTER:                  -8.928
REMARK INTRA:                  -0.524
REMARK UNBOUND:                -0.524
REMARK  Name = 
REMARK  6 active torsions:
REMARK  status: ('A' for Active; 'I' for Inactive)
REMARK    1  A    between atoms: C_1  and  C_2
REMARK    2  A    between atoms: C_2  and  C_4
REMARK    3  A    between atoms: C_5  and  S_6
REMARK    4  A    between atoms: S_6  and  C_8
REMARK    5  A    between atoms: C_8  and  C_9
REMARK    6  A    between atoms: C_11  and  C_12
REMARK                            x       y       z     vdW  Elec       q    Type
REMARK                         _______ _______ _______ _____ _____    ______ ____
ROOT
ATOM      1  C   UNL     1     -55.973 -42.863 -62.845  0.00  0.00    +0.000 A 
ATOM      2  C   UNL     1     -55.795 -41.703 -63.514  0.00  0.00    +0.000 A 
ATOM      3  N   UNL     1     -54.598 -41.337 -64.104  0.00  0.00    +0.000 N 
ATOM      4  C   UNL     1     -53.418 -42.079 -63.952  0.00  0.00    +0.000 A 
ATOM      5  C   UNL     1     -52.215 -41.645 -64.541  0.00  0.00    +0.000 A 
ATOM      6 BR   UNL     1     -52.128 -40.002 -65.492  0.00  0.00    +0.000 Br
ATOM      7  C   UNL     1     -51.053 -42.403 -64.442  0.00  0.00    +0.000 A 
ATOM      8  C   UNL     1     -51.080 -43.617 -63.757  0.00  0.00    +0.000 A 
ATOM      9  C   UNL     1     -52.269 -44.079 -63.181  0.00  0.00    +0.000 A 
ATOM     10 CL   UNL     1     -52.144 -45.601 -62.367  0.00  0.00    +0.000 Cl
ATOM     11  C   UNL     1     -53.450 -43.318 -63.289  0.00  0.00    +0.000 A 
ATOM     12  C   UNL     1     -54.753 -43.735 -62.697  0.00  0.00    +0.000 A 
ATOM     13  O   UNL     1     -54.824 -44.772 -62.049  0.00  0.00    +0.000 OA
ATOM     14  H   UNL     1     -54.473 -40.335 -64.252  0.00  0.00    +0.000 HD
ENDROOT
BRANCH   1  16
ATOM     15  C   UNL     1     -57.718 -42.655 -60.920  0.00  0.00    +0.000 C 
ATOM     16  C   UNL     1     -57.275 -43.299 -62.216  0.00  0.00    +0.000 C 
ATOM     17  O   UNL     1     -57.977 -44.172 -62.723  0.00  0.00    +0.000 OA
ENDBRANCH   1  16
BRANCH   2  18
ATOM     18  S   UNL     1     -57.090 -40.421 -63.550  0.00  0.00    +0.000 S 
ATOM     19  O   UNL     1     -56.489 -39.337 -64.403  0.00  0.00    +0.000 OA
BRANCH  18  20
ATOM     20  C   UNL     1     -58.321 -41.267 -64.606  0.00  0.00    +0.000 C 
BRANCH  20  21
ATOM     21  C   UNL     1     -57.710 -41.885 -65.820  0.00  0.00    +0.000 A 
ATOM     22  C   UNL     1     -56.985 -41.290 -66.884  0.00  0.00    +0.000 A 
ATOM     23  C   UNL     1     -56.646 -42.339 -67.705  0.00  0.00    +0.000 A 
ATOM     24  C   UNL     1     -55.937 -42.461 -68.991  0.00  0.00    +0.000 C 
ATOM     25  O   UNL     1     -57.103 -43.495 -67.157  0.00  0.00    +0.000 OA
ATOM     26  N   UNL     1     -57.764 -43.217 -65.974  0.00  0.00    +0.000 NA
ENDBRANCH  20  21
ENDBRANCH  18  20
ENDBRANCH   2  18
TORSDOF 4
