REMARK VINA RESULT:    -6.777     11.267     14.722
REMARK INTER + INTRA:          -9.442
REMARK INTER:                  -8.546
REMARK INTRA:                  -0.896
REMARK UNBOUND:                -0.684
REMARK  Name = 
REMARK  8 active torsions:
REMARK  status: ('A' for Active; 'I' for Inactive)
REMARK    1  A    between atoms: C_1  and  C_2
REMARK    2  A    between atoms: C_4  and  C_5
REMARK    3  A    between atoms: C_5  and  S_6
REMARK    4  A    between atoms: S_6  and  C_8
REMARK    5  A    between atoms: C_20  and  C_21
REMARK    6  A    between atoms: C_21  and  C_23
REMARK    7  A    between atoms: C_23  and  C_24
REMARK    8  A    between atoms: C_23  and  C_25
REMARK                            x       y       z     vdW  Elec       q    Type
REMARK                         _______ _______ _______ _____ _____    ______ ____
ROOT
ATOM      1  C   UNL     1     -54.979 -41.966 -78.044  0.00  0.00    +0.000 A 
ATOM      2  N   UNL     1     -56.301 -42.331 -77.812  0.00  0.00    +0.000 N 
ATOM      3  C   UNL     1     -56.874 -42.256 -76.528  0.00  0.00    +0.000 A 
ATOM      4  C   UNL     1     -58.267 -42.210 -76.330  0.00  0.00    +0.000 A 
ATOM      5 BR   UNL     1     -59.458 -42.079 -77.801  0.00  0.00    +0.000 Br
ATOM      6  C   UNL     1     -58.811 -42.215 -75.043  0.00  0.00    +0.000 A 
ATOM      7  C   UNL     1     -57.971 -42.263 -73.934  0.00  0.00    +0.000 A 
ATOM      8  C   UNL     1     -56.576 -42.302 -74.109  0.00  0.00    +0.000 A 
ATOM      9 CL   UNL     1     -55.636 -42.286 -72.661  0.00  0.00    +0.000 Cl
ATOM     10  C   UNL     1     -56.027 -42.304 -75.409  0.00  0.00    +0.000 A 
ATOM     11  C   UNL     1     -54.572 -42.377 -75.700  0.00  0.00    +0.000 A 
ATOM     12  O   UNL     1     -53.804 -42.863 -74.876  0.00  0.00    +0.000 OA
ATOM     13  C   UNL     1     -54.071 -41.857 -77.044  0.00  0.00    +0.000 A 
ATOM     14  H   UNL     1     -56.933 -42.132 -78.601  0.00  0.00    +0.000 HD
ENDROOT
BRANCH   1  15
ATOM     15  S   UNL     1     -54.716 -41.459 -79.786  0.00  0.00    +0.000 S 
ATOM     16  O   UNL     1     -56.110 -41.240 -80.310  0.00  0.00    +0.000 OA
BRANCH  15  17
ATOM     17  C   UNL     1     -54.037 -42.964 -80.562  0.00  0.00    +0.000 C 
BRANCH  17  21
ATOM     18  C   UNL     1     -50.339 -42.327 -84.129  0.00  0.00    +0.000 C 
ATOM     19  C   UNL     1     -51.248 -42.470 -82.970  0.00  0.00    +0.000 A 
ATOM     20  C   UNL     1     -52.604 -42.640 -82.810  0.00  0.00    +0.000 A 
ATOM     21  C   UNL     1     -52.803 -42.735 -81.402  0.00  0.00    +0.000 A 
ATOM     22  N   UNL     1     -51.625 -42.606 -80.767  0.00  0.00    +0.000 NA
ATOM     23  O   UNL     1     -50.663 -42.445 -81.745  0.00  0.00    +0.000 OA
ENDBRANCH  17  21
ENDBRANCH  15  17
ENDBRANCH   1  15
BRANCH  13  24
ATOM     24  C   UNL     1     -52.678 -41.269 -77.069  0.00  0.00    +0.000 C 
ATOM     25  O   UNL     1     -51.735 -41.930 -77.501  0.00  0.00    +0.000 OA
BRANCH  24  26
ATOM     26  C   UNL     1     -52.418 -39.874 -76.497  0.00  0.00    +0.000 C 
ATOM     27  C   UNL     1     -50.947 -39.675 -76.140  0.00  0.00    +0.000 C 
ATOM     28  C   UNL     1     -52.889 -38.769 -77.446  0.00  0.00    +0.000 C 
ENDBRANCH  24  26
ENDBRANCH  13  24
TORSDOF 5
