REMARK VINA RESULT:    -5.714     11.998     14.936
REMARK INTER + INTRA:          -8.261
REMARK INTER:                  -7.250
REMARK INTRA:                  -1.011
REMARK UNBOUND:                -0.876
REMARK  Name = 
REMARK  6 active torsions:
REMARK  status: ('A' for Active; 'I' for Inactive)
REMARK    1  A    between atoms: C_1  and  C_2
REMARK    2  A    between atoms: C_4  and  C_5
REMARK    3  A    between atoms: C_5  and  S_6
REMARK    4  A    between atoms: S_6  and  C_8
REMARK    5  A    between atoms: C_20  and  C_21
REMARK    6  A    between atoms: C_21  and  C_23
REMARK                            x       y       z     vdW  Elec       q    Type
REMARK                         _______ _______ _______ _____ _____    ______ ____
ROOT
ATOM      1  C   UNL     1     -56.608 -40.939 -61.628  0.00  0.00    +0.000 A 
ATOM      2  N   UNL     1     -56.630 -41.548 -60.358  0.00  0.00    +0.000 N 
ATOM      3  C   UNL     1     -55.704 -42.576 -60.032  0.00  0.00    +0.000 A 
ATOM      4  C   UNL     1     -55.405 -42.949 -58.708  0.00  0.00    +0.000 A 
ATOM      5 BR   UNL     1     -56.094 -41.971 -57.236  0.00  0.00    +0.000 Br
ATOM      6  C   UNL     1     -54.570 -44.041 -58.433  0.00  0.00    +0.000 A 
ATOM      7  C   UNL     1     -53.999 -44.759 -59.490  0.00  0.00    +0.000 A 
ATOM      8  C   UNL     1     -54.278 -44.407 -60.811  0.00  0.00    +0.000 A 
ATOM      9 CL   UNL     1     -53.468 -45.309 -62.040  0.00  0.00    +0.000 Cl
ATOM     10  C   UNL     1     -55.145 -43.334 -61.073  0.00  0.00    +0.000 A 
ATOM     11  C   UNL     1     -55.566 -42.943 -62.432  0.00  0.00    +0.000 A 
ATOM     12  O   UNL     1     -55.661 -43.762 -63.338  0.00  0.00    +0.000 OA
ATOM     13  C   UNL     1     -55.956 -41.514 -62.663  0.00  0.00    +0.000 A 
ATOM     14  H   UNL     1     -56.775 -40.865 -59.601  0.00  0.00    +0.000 HD
ENDROOT
BRANCH   1  15
ATOM     15  S   UNL     1     -57.117 -39.201 -61.576  0.00  0.00    +0.000 S 
ATOM     16  O   UNL     1     -56.025 -38.519 -60.797  0.00  0.00    +0.000 OA
BRANCH  15  17
ATOM     17  C   UNL     1     -58.650 -39.046 -60.612  0.00  0.00    +0.000 C 
BRANCH  17  21
ATOM     18  C   UNL     1     -62.826 -40.117 -63.374  0.00  0.00    +0.000 C 
ATOM     19  C   UNL     1     -61.759 -39.750 -62.425  0.00  0.00    +0.000 A 
ATOM     20  C   UNL     1     -60.387 -39.846 -62.428  0.00  0.00    +0.000 A 
ATOM     21  C   UNL     1     -59.985 -39.209 -61.233  0.00  0.00    +0.000 A 
ATOM     22  N   UNL     1     -61.057 -38.818 -60.522  0.00  0.00    +0.000 NA
ATOM     23  O   UNL     1     -62.163 -39.157 -61.273  0.00  0.00    +0.000 OA
ENDBRANCH  17  21
ENDBRANCH  15  17
ENDBRANCH   1  15
BRANCH  13  24
ATOM     24  C   UNL     1     -55.404 -40.938 -63.922  0.00  0.00    +0.000 C 
ATOM     25  O   UNL     1     -54.203 -40.774 -64.053  0.00  0.00    +0.000 OA
BRANCH  24  26
ATOM     26  C   UNL     1     -56.330 -40.614 -65.023  0.00  0.00    +0.000 C 
ATOM     27  C   UNL     1     -57.621 -41.381 -65.155  0.00  0.00    +0.000 C 
ATOM     28  C   UNL     1     -56.539 -41.567 -66.176  0.00  0.00    +0.000 C 
ENDBRANCH  24  26
ENDBRANCH  13  24
TORSDOF 5
