REMARK VINA RESULT:    -7.340      8.834     12.824
REMARK INTER + INTRA:         -10.361
REMARK INTER:                  -9.620
REMARK INTRA:                  -0.741
REMARK UNBOUND:                -0.876
REMARK  Name = 
REMARK  6 active torsions:
REMARK  status: ('A' for Active; 'I' for Inactive)
REMARK    1  A    between atoms: C_1  and  C_2
REMARK    2  A    between atoms: C_4  and  C_5
REMARK    3  A    between atoms: C_5  and  S_6
REMARK    4  A    between atoms: S_6  and  C_8
REMARK    5  A    between atoms: C_20  and  C_21
REMARK    6  A    between atoms: C_21  and  C_23
REMARK                            x       y       z     vdW  Elec       q    Type
REMARK                         _______ _______ _______ _____ _____    ______ ____
ROOT
ATOM      1  C   UNL     1     -55.787 -41.281 -63.418  0.00  0.00    +0.000 A 
ATOM      2  N   UNL     1     -54.434 -40.987 -63.675  0.00  0.00    +0.000 N 
ATOM      3  C   UNL     1     -53.464 -42.026 -63.725  0.00  0.00    +0.000 A 
ATOM      4  C   UNL     1     -52.209 -41.876 -64.343  0.00  0.00    +0.000 A 
ATOM      5 BR   UNL     1     -51.783 -40.311 -65.326  0.00  0.00    +0.000 Br
ATOM      6  C   UNL     1     -51.241 -42.888 -64.274  0.00  0.00    +0.000 A 
ATOM      7  C   UNL     1     -51.533 -44.081 -63.603  0.00  0.00    +0.000 A 
ATOM      8  C   UNL     1     -52.771 -44.253 -62.983  0.00  0.00    +0.000 A 
ATOM      9 CL   UNL     1     -53.059 -45.787 -62.244  0.00  0.00    +0.000 Cl
ATOM     10  C   UNL     1     -53.718 -43.219 -63.029  0.00  0.00    +0.000 A 
ATOM     11  C   UNL     1     -55.018 -43.276 -62.333  0.00  0.00    +0.000 A 
ATOM     12  O   UNL     1     -55.165 -43.904 -61.292  0.00  0.00    +0.000 OA
ATOM     13  C   UNL     1     -56.153 -42.472 -62.895  0.00  0.00    +0.000 A 
ATOM     14  H   UNL     1     -54.322 -40.281 -64.415  0.00  0.00    +0.000 HD
ENDROOT
BRANCH   1  15
ATOM     15  S   UNL     1     -56.918 -40.139 -64.254  0.00  0.00    +0.000 S 
ATOM     16  O   UNL     1     -57.707 -39.515 -63.135  0.00  0.00    +0.000 OA
BRANCH  15  17
ATOM     17  C   UNL     1     -58.083 -41.081 -65.281  0.00  0.00    +0.000 C 
BRANCH  17  21
ATOM     18  C   UNL     1     -55.821 -43.277 -69.316  0.00  0.00    +0.000 C 
ATOM     19  C   UNL     1     -56.656 -42.710 -68.241  0.00  0.00    +0.000 A 
ATOM     20  C   UNL     1     -56.398 -42.089 -67.042  0.00  0.00    +0.000 A 
ATOM     21  C   UNL     1     -57.670 -41.713 -66.555  0.00  0.00    +0.000 A 
ATOM     22  N   UNL     1     -58.638 -42.147 -67.382  0.00  0.00    +0.000 NA
ATOM     23  O   UNL     1     -57.998 -42.768 -68.434  0.00  0.00    +0.000 OA
ENDBRANCH  17  21
ENDBRANCH  15  17
ENDBRANCH   1  15
BRANCH  13  24
ATOM     24  C   UNL     1     -57.449 -43.208 -62.930  0.00  0.00    +0.000 C 
ATOM     25  O   UNL     1     -57.554 -44.250 -63.553  0.00  0.00    +0.000 OA
BRANCH  24  26
ATOM     26  C   UNL     1     -58.588 -42.677 -62.157  0.00  0.00    +0.000 C 
ATOM     27  C   UNL     1     -58.450 -42.486 -60.669  0.00  0.00    +0.000 C 
ATOM     28  C   UNL     1     -59.359 -43.553 -61.198  0.00  0.00    +0.000 C 
ENDBRANCH  24  26
ENDBRANCH  13  24
TORSDOF 5
