REMARK VINA RESULT:    -6.430     12.535     14.947
REMARK INTER + INTRA:          -9.267
REMARK INTER:                  -8.863
REMARK INTRA:                  -0.404
REMARK UNBOUND:                -0.957
REMARK  Name = 
REMARK  6 active torsions:
REMARK  status: ('A' for Active; 'I' for Inactive)
REMARK    1  A    between atoms: C_1  and  C_2
REMARK    2  A    between atoms: C_4  and  C_5
REMARK    3  A    between atoms: C_5  and  S_6
REMARK    4  A    between atoms: S_6  and  C_8
REMARK    5  A    between atoms: C_20  and  C_21
REMARK    6  A    between atoms: C_21  and  C_23
REMARK                            x       y       z     vdW  Elec       q    Type
REMARK                         _______ _______ _______ _____ _____    ______ ____
ROOT
ATOM      1  C   UNL     1     -55.282 -42.336 -77.740  0.00  0.00    +0.000 A 
ATOM      2  N   UNL     1     -56.610 -42.733 -77.491  0.00  0.00    +0.000 N 
ATOM      3  C   UNL     1     -57.212 -42.491 -76.226  0.00  0.00    +0.000 A 
ATOM      4  C   UNL     1     -58.605 -42.493 -76.026  0.00  0.00    +0.000 A 
ATOM      5 BR   UNL     1     -59.804 -42.646 -77.488  0.00  0.00    +0.000 Br
ATOM      6  C   UNL     1     -59.154 -42.360 -74.743  0.00  0.00    +0.000 A 
ATOM      7  C   UNL     1     -58.306 -42.193 -73.641  0.00  0.00    +0.000 A 
ATOM      8  C   UNL     1     -56.922 -42.185 -73.815  0.00  0.00    +0.000 A 
ATOM      9 CL   UNL     1     -55.967 -41.901 -72.405  0.00  0.00    +0.000 Cl
ATOM     10  C   UNL     1     -56.385 -42.356 -75.100  0.00  0.00    +0.000 A 
ATOM     11  C   UNL     1     -54.937 -42.446 -75.370  0.00  0.00    +0.000 A 
ATOM     12  O   UNL     1     -54.156 -42.908 -74.548  0.00  0.00    +0.000 OA
ATOM     13  C   UNL     1     -54.446 -42.027 -76.724  0.00  0.00    +0.000 A 
ATOM     14  H   UNL     1     -57.230 -42.539 -78.289  0.00  0.00    +0.000 HD
ENDROOT
BRANCH   1  15
ATOM     15  S   UNL     1     -55.006 -41.872 -79.470  0.00  0.00    +0.000 S 
ATOM     16  O   UNL     1     -56.320 -42.160 -80.144  0.00  0.00    +0.000 OA
BRANCH  15  17
ATOM     17  C   UNL     1     -53.765 -42.977 -80.204  0.00  0.00    +0.000 C 
BRANCH  17  21
ATOM     18  C   UNL     1     -50.223 -41.949 -83.756  0.00  0.00    +0.000 C 
ATOM     19  C   UNL     1     -51.386 -42.201 -82.885  0.00  0.00    +0.000 A 
ATOM     20  C   UNL     1     -51.550 -42.664 -81.601  0.00  0.00    +0.000 A 
ATOM     21  C   UNL     1     -52.939 -42.566 -81.363  0.00  0.00    +0.000 A 
ATOM     22  N   UNL     1     -53.577 -42.137 -82.466  0.00  0.00    +0.000 NA
ATOM     23  O   UNL     1     -52.601 -41.909 -83.413  0.00  0.00    +0.000 OA
ENDBRANCH  17  21
ENDBRANCH  15  17
ENDBRANCH   1  15
BRANCH  13  24
ATOM     24  C   UNL     1     -53.210 -41.195 -76.682  0.00  0.00    +0.000 C 
ATOM     25  O   UNL     1     -53.282 -39.979 -76.640  0.00  0.00    +0.000 OA
BRANCH  24  26
ATOM     26  C   UNL     1     -51.899 -41.871 -76.643  0.00  0.00    +0.000 C 
ATOM     27  C   UNL     1     -50.900 -41.490 -75.581  0.00  0.00    +0.000 C 
ATOM     28  C   UNL     1     -50.630 -41.140 -77.013  0.00  0.00    +0.000 C 
ENDBRANCH  24  26
ENDBRANCH  13  24
TORSDOF 5
