REMARK VINA RESULT:    -5.976      3.315      6.706
REMARK INTER + INTRA:          -8.647
REMARK INTER:                  -7.803
REMARK INTRA:                  -0.844
REMARK UNBOUND:                -0.925
REMARK  Name = 
REMARK  8 active torsions:
REMARK  status: ('A' for Active; 'I' for Inactive)
REMARK    1  A    between atoms: C_1  and  C_2
REMARK    2  A    between atoms: C_4  and  C_5
REMARK    3  A    between atoms: C_5  and  S_6
REMARK    4  A    between atoms: S_6  and  C_8
REMARK    5  A    between atoms: C_20  and  C_21
REMARK    6  A    between atoms: C_21  and  C_23
REMARK    7  A    between atoms: C_23  and  C_24
REMARK    8  A    between atoms: C_23  and  C_25
REMARK                            x       y       z     vdW  Elec       q    Type
REMARK                         _______ _______ _______ _____ _____    ______ ____
ROOT
ATOM      1  C   UNL     1     -56.542 -41.306 -78.225  0.00  0.00    +0.000 A 
ATOM      2  N   UNL     1     -56.990 -41.573 -79.516  0.00  0.00    +0.000 N 
ATOM      3  C   UNL     1     -58.342 -41.872 -79.784  0.00  0.00    +0.000 A 
ATOM      4  C   UNL     1     -58.890 -41.762 -81.078  0.00  0.00    +0.000 A 
ATOM      5 CL   UNL     1     -57.964 -41.094 -82.375  0.00  0.00    +0.000 Cl
ATOM      6  C   UNL     1     -60.200 -42.162 -81.340  0.00  0.00    +0.000 A 
ATOM      7  C   UNL     1     -60.985 -42.677 -80.305  0.00  0.00    +0.000 A 
ATOM      8  C   UNL     1     -60.463 -42.780 -79.009  0.00  0.00    +0.000 A 
ATOM      9 CL   UNL     1     -61.548 -43.368 -77.803  0.00  0.00    +0.000 Cl
ATOM     10  C   UNL     1     -59.139 -42.389 -78.754  0.00  0.00    +0.000 A 
ATOM     11  C   UNL     1     -58.457 -42.528 -77.442  0.00  0.00    +0.000 A 
ATOM     12  O   UNL     1     -58.815 -43.412 -76.673  0.00  0.00    +0.000 OA
ATOM     13  C   UNL     1     -57.271 -41.628 -77.119  0.00  0.00    +0.000 A 
ATOM     14  H   UNL     1     -56.508 -41.023 -80.240  0.00  0.00    +0.000 HD
ENDROOT
BRANCH   1  15
ATOM     15  S   UNL     1     -55.019 -40.277 -78.249  0.00  0.00    +0.000 S 
ATOM     16  O   UNL     1     -54.721 -40.118 -79.715  0.00  0.00    +0.000 OA
BRANCH  15  17
ATOM     17  C   UNL     1     -53.750 -41.410 -77.549  0.00  0.00    +0.000 C 
BRANCH  17  21
ATOM     18  C   UNL     1     -49.467 -39.808 -75.136  0.00  0.00    +0.000 C 
ATOM     19  C   UNL     1     -50.715 -40.068 -75.885  0.00  0.00    +0.000 A 
ATOM     20  C   UNL     1     -51.399 -41.194 -76.279  0.00  0.00    +0.000 A 
ATOM     21  C   UNL     1     -52.566 -40.708 -76.933  0.00  0.00    +0.000 A 
ATOM     22  N   UNL     1     -52.553 -39.364 -76.954  0.00  0.00    +0.000 NA
ATOM     23  O   UNL     1     -51.403 -38.971 -76.295  0.00  0.00    +0.000 OA
ENDBRANCH  17  21
ENDBRANCH  15  17
ENDBRANCH   1  15
BRANCH  13  24
ATOM     24  C   UNL     1     -57.142 -41.251 -75.657  0.00  0.00    +0.000 C 
ATOM     25  O   UNL     1     -57.784 -40.291 -75.210  0.00  0.00    +0.000 OA
BRANCH  24  26
ATOM     26  C   UNL     1     -56.133 -41.912 -74.737  0.00  0.00    +0.000 C 
ATOM     27  C   UNL     1     -56.633 -41.859 -73.306  0.00  0.00    +0.000 C 
ATOM     28  C   UNL     1     -55.778 -43.317 -75.208  0.00  0.00    +0.000 C 
ENDBRANCH  24  26
ENDBRANCH  13  24
TORSDOF 5
