REMARK VINA RESULT:    -5.320      4.342      6.682
REMARK INTER + INTRA:          -7.814
REMARK INTER:                  -7.171
REMARK INTRA:                  -0.643
REMARK UNBOUND:                -0.940
REMARK  Name = 
REMARK  6 active torsions:
REMARK  status: ('A' for Active; 'I' for Inactive)
REMARK    1  A    between atoms: C_1  and  C_2
REMARK    2  A    between atoms: C_4  and  C_5
REMARK    3  A    between atoms: C_5  and  S_6
REMARK    4  A    between atoms: S_6  and  C_8
REMARK    5  A    between atoms: C_20  and  C_21
REMARK    6  A    between atoms: C_21  and  C_23
REMARK                            x       y       z     vdW  Elec       q    Type
REMARK                         _______ _______ _______ _____ _____    ______ ____
ROOT
ATOM      1  C   UNL     1     -58.464 -43.150 -61.982  0.00  0.00    +0.000 A 
ATOM      2  N   UNL     1     -59.324 -44.090 -61.382  0.00  0.00    +0.000 N 
ATOM      3  C   UNL     1     -60.519 -43.669 -60.737  0.00  0.00    +0.000 A 
ATOM      4  C   UNL     1     -61.594 -44.537 -60.470  0.00  0.00    +0.000 A 
ATOM      5 BR   UNL     1     -61.599 -46.319 -61.121  0.00  0.00    +0.000 Br
ATOM      6  C   UNL     1     -62.708 -44.107 -59.734  0.00  0.00    +0.000 A 
ATOM      7  C   UNL     1     -62.768 -42.785 -59.279  0.00  0.00    +0.000 A 
ATOM      8  C   UNL     1     -61.716 -41.906 -59.533  0.00  0.00    +0.000 A 
ATOM      9 CL   UNL     1     -61.919 -40.279 -58.992  0.00  0.00    +0.000 Cl
ATOM     10  C   UNL     1     -60.591 -42.358 -60.240  0.00  0.00    +0.000 A 
ATOM     11  C   UNL     1     -59.395 -41.528 -60.482  0.00  0.00    +0.000 A 
ATOM     12  O   UNL     1     -59.047 -40.655 -59.697  0.00  0.00    +0.000 OA
ATOM     13  C   UNL     1     -58.559 -41.834 -61.689  0.00  0.00    +0.000 A 
ATOM     14  H   UNL     1     -59.440 -44.935 -61.959  0.00  0.00    +0.000 HD
ENDROOT
BRANCH   1  15
ATOM     15  S   UNL     1     -57.605 -43.817 -63.432  0.00  0.00    +0.000 S 
ATOM     16  O   UNL     1     -56.174 -43.396 -63.240  0.00  0.00    +0.000 OA
BRANCH  15  17
ATOM     17  C   UNL     1     -58.218 -42.993 -64.931  0.00  0.00    +0.000 C 
BRANCH  17  21
ATOM     18  C   UNL     1     -55.896 -43.259 -69.487  0.00  0.00    +0.000 C 
ATOM     19  C   UNL     1     -56.466 -42.995 -68.153  0.00  0.00    +0.000 A 
ATOM     20  C   UNL     1     -57.389 -43.627 -67.354  0.00  0.00    +0.000 A 
ATOM     21  C   UNL     1     -57.391 -42.880 -66.155  0.00  0.00    +0.000 A 
ATOM     22  N   UNL     1     -56.569 -41.821 -66.258  0.00  0.00    +0.000 NA
ATOM     23  O   UNL     1     -55.992 -41.899 -67.508  0.00  0.00    +0.000 OA
ENDBRANCH  17  21
ENDBRANCH  15  17
ENDBRANCH   1  15
BRANCH  13  24
ATOM     24  C   UNL     1     -58.129 -40.622 -62.443  0.00  0.00    +0.000 C 
ATOM     25  O   UNL     1     -58.909 -40.038 -63.173  0.00  0.00    +0.000 OA
BRANCH  24  26
ATOM     26  C   UNL     1     -56.756 -40.116 -62.252  0.00  0.00    +0.000 C 
ATOM     27  C   UNL     1     -56.400 -38.737 -62.743  0.00  0.00    +0.000 C 
ATOM     28  C   UNL     1     -55.818 -39.939 -63.422  0.00  0.00    +0.000 C 
ENDBRANCH  24  26
ENDBRANCH  13  24
TORSDOF 5
