REMARK VINA RESULT:    -4.899     16.282     17.860
REMARK INTER + INTRA:          -6.895
REMARK INTER:                  -6.309
REMARK INTRA:                  -0.586
REMARK UNBOUND:                -0.850
REMARK  Name = 
REMARK  6 active torsions:
REMARK  status: ('A' for Active; 'I' for Inactive)
REMARK    1  A    between atoms: C_1  and  C_2
REMARK    2  A    between atoms: C_2  and  C_4
REMARK    3  A    between atoms: C_5  and  S_6
REMARK    4  A    between atoms: S_6  and  C_8
REMARK    5  A    between atoms: C_8  and  C_9
REMARK    6  A    between atoms: C_11  and  C_12
REMARK                            x       y       z     vdW  Elec       q    Type
REMARK                         _______ _______ _______ _____ _____    ______ ____
ROOT
ATOM      1  C   UNL     1     -56.129 -44.408 -78.796  0.00  0.00    +0.000 A 
ATOM      2  C   UNL     1     -56.092 -43.111 -79.178  0.00  0.00    +0.000 A 
ATOM      3  N   UNL     1     -55.260 -42.177 -78.599  0.00  0.00    +0.000 N 
ATOM      4  C   UNL     1     -54.406 -42.467 -77.523  0.00  0.00    +0.000 A 
ATOM      5  C   UNL     1     -53.505 -41.507 -77.034  0.00  0.00    +0.000 A 
ATOM      6 BR   UNL     1     -53.452 -39.753 -77.771  0.00  0.00    +0.000 Br
ATOM      7  C   UNL     1     -52.618 -41.809 -76.005  0.00  0.00    +0.000 A 
ATOM      8  C   UNL     1     -52.617 -43.087 -75.453  0.00  0.00    +0.000 A 
ATOM      9  C   UNL     1     -53.486 -44.071 -75.939  0.00  0.00    +0.000 A 
ATOM     10 CL   UNL     1     -53.361 -45.613 -75.164  0.00  0.00    +0.000 Cl
ATOM     11  C   UNL     1     -54.367 -43.771 -76.997  0.00  0.00    +0.000 A 
ATOM     12  C   UNL     1     -55.303 -44.763 -77.586  0.00  0.00    +0.000 A 
ATOM     13  O   UNL     1     -55.448 -45.867 -77.069  0.00  0.00    +0.000 OA
ATOM     14  H   UNL     1     -55.522 -41.198 -78.717  0.00  0.00    +0.000 HD
ENDROOT
BRANCH   1  16
ATOM     15  C   UNL     1     -58.329 -45.767 -78.928  0.00  0.00    +0.000 C 
ATOM     16  C   UNL     1     -56.941 -45.481 -79.463  0.00  0.00    +0.000 C 
ATOM     17  O   UNL     1     -56.497 -46.152 -80.393  0.00  0.00    +0.000 OA
ENDBRANCH   1  16
BRANCH   2  18
ATOM     18  S   UNL     1     -57.266 -42.462 -80.412  0.00  0.00    +0.000 S 
ATOM     19  O   UNL     1     -58.109 -41.497 -79.621  0.00  0.00    +0.000 OA
BRANCH  18  20
ATOM     20  C   UNL     1     -56.123 -41.439 -81.394  0.00  0.00    +0.000 C 
BRANCH  20  21
ATOM     21  C   UNL     1     -56.740 -40.970 -82.670  0.00  0.00    +0.000 A 
ATOM     22  C   UNL     1     -56.375 -39.868 -83.486  0.00  0.00    +0.000 A 
ATOM     23  C   UNL     1     -57.204 -39.954 -84.576  0.00  0.00    +0.000 A 
ATOM     24  C   UNL     1     -57.368 -39.171 -85.815  0.00  0.00    +0.000 C 
ATOM     25  O   UNL     1     -58.024 -41.028 -84.426  0.00  0.00    +0.000 OA
ATOM     26  N   UNL     1     -57.733 -41.671 -83.235  0.00  0.00    +0.000 NA
ENDBRANCH  20  21
ENDBRANCH  18  20
ENDBRANCH   2  18
TORSDOF 4
