REMARK VINA RESULT:    -6.595     12.129     14.027
REMARK INTER + INTRA:          -9.433
REMARK INTER:                  -8.177
REMARK INTRA:                  -1.256
REMARK UNBOUND:                -0.910
REMARK  Name = 
REMARK  6 active torsions:
REMARK  status: ('A' for Active; 'I' for Inactive)
REMARK    1  A    between atoms: C_1  and  C_2
REMARK    2  A    between atoms: C_4  and  C_5
REMARK    3  A    between atoms: C_5  and  S_6
REMARK    4  A    between atoms: S_6  and  C_8
REMARK    5  A    between atoms: C_20  and  C_21
REMARK    6  A    between atoms: C_21  and  C_23
REMARK                            x       y       z     vdW  Elec       q    Type
REMARK                         _______ _______ _______ _____ _____    ______ ____
ROOT
ATOM      1  C   UNL     1     -56.244 -41.891 -77.476  0.00  0.00    +0.000 A 
ATOM      2  N   UNL     1     -55.316 -40.855 -77.253  0.00  0.00    +0.000 N 
ATOM      3  C   UNL     1     -54.002 -41.147 -76.793  0.00  0.00    +0.000 A 
ATOM      4  C   UNL     1     -52.927 -40.247 -76.919  0.00  0.00    +0.000 A 
ATOM      5 BR   UNL     1     -53.116 -38.626 -77.885  0.00  0.00    +0.000 Br
ATOM      6  C   UNL     1     -51.676 -40.529 -76.354  0.00  0.00    +0.000 A 
ATOM      7  C   UNL     1     -51.478 -41.738 -75.676  0.00  0.00    +0.000 A 
ATOM      8  C   UNL     1     -52.528 -42.646 -75.541  0.00  0.00    +0.000 A 
ATOM      9 CL   UNL     1     -52.163 -44.138 -74.752  0.00  0.00    +0.000 Cl
ATOM     10  C   UNL     1     -53.786 -42.336 -76.080  0.00  0.00    +0.000 A 
ATOM     11  C   UNL     1     -54.976 -43.194 -75.913  0.00  0.00    +0.000 A 
ATOM     12  O   UNL     1     -55.130 -43.897 -74.922  0.00  0.00    +0.000 OA
ATOM     13  C   UNL     1     -56.045 -43.125 -76.963  0.00  0.00    +0.000 A 
ATOM     14  H   UNL     1     -55.347 -40.139 -77.991  0.00  0.00    +0.000 HD
ENDROOT
BRANCH   1  15
ATOM     15  S   UNL     1     -57.396 -41.515 -78.824  0.00  0.00    +0.000 S 
ATOM     16  O   UNL     1     -58.547 -42.457 -78.598  0.00  0.00    +0.000 OA
BRANCH  15  17
ATOM     17  C   UNL     1     -56.635 -41.958 -80.413  0.00  0.00    +0.000 C 
BRANCH  17  21
ATOM     18  C   UNL     1     -51.666 -42.737 -81.373  0.00  0.00    +0.000 C 
ATOM     19  C   UNL     1     -53.049 -42.305 -81.097  0.00  0.00    +0.000 A 
ATOM     20  C   UNL     1     -54.259 -42.948 -80.988  0.00  0.00    +0.000 A 
ATOM     21  C   UNL     1     -55.167 -41.934 -80.612  0.00  0.00    +0.000 A 
ATOM     22  N   UNL     1     -54.550 -40.740 -80.568  0.00  0.00    +0.000 NA
ATOM     23  O   UNL     1     -53.225 -40.979 -80.870  0.00  0.00    +0.000 OA
ENDBRANCH  17  21
ENDBRANCH  15  17
ENDBRANCH   1  15
BRANCH  13  24
ATOM     24  C   UNL     1     -56.572 -44.459 -77.369  0.00  0.00    +0.000 C 
ATOM     25  O   UNL     1     -57.672 -44.830 -76.997  0.00  0.00    +0.000 OA
BRANCH  24  26
ATOM     26  C   UNL     1     -55.761 -45.301 -78.268  0.00  0.00    +0.000 C 
ATOM     27  C   UNL     1     -56.129 -46.750 -78.460  0.00  0.00    +0.000 C 
ATOM     28  C   UNL     1     -54.872 -46.394 -77.726  0.00  0.00    +0.000 C 
ENDBRANCH  24  26
ENDBRANCH  13  24
TORSDOF 5
