REMARK VINA RESULT:    -4.531     11.762     13.790
REMARK INTER + INTRA:          -6.594
REMARK INTER:                  -5.990
REMARK INTRA:                  -0.603
REMARK UNBOUND:                -1.003
REMARK  Name = 
REMARK  6 active torsions:
REMARK  status: ('A' for Active; 'I' for Inactive)
REMARK    1  A    between atoms: C_1  and  C_2
REMARK    2  A    between atoms: C_2  and  C_4
REMARK    3  A    between atoms: C_5  and  S_6
REMARK    4  A    between atoms: S_6  and  C_8
REMARK    5  A    between atoms: C_8  and  C_9
REMARK    6  A    between atoms: C_11  and  C_12
REMARK                            x       y       z     vdW  Elec       q    Type
REMARK                         _______ _______ _______ _____ _____    ______ ____
ROOT
ATOM      1  C   UNL     1     -63.772 -42.684 -70.192  0.00  0.00    +0.000 A 
ATOM      2  C   UNL     1     -65.059 -42.367 -69.923  0.00  0.00    +0.000 A 
ATOM      3  N   UNL     1     -65.439 -41.628 -68.819  0.00  0.00    +0.000 N 
ATOM      4  C   UNL     1     -64.547 -41.283 -67.787  0.00  0.00    +0.000 A 
ATOM      5  C   UNL     1     -64.991 -40.598 -66.643  0.00  0.00    +0.000 A 
ATOM      6 BR   UNL     1     -66.831 -40.186 -66.406  0.00  0.00    +0.000 Br
ATOM      7  C   UNL     1     -64.099 -40.208 -65.645  0.00  0.00    +0.000 A 
ATOM      8  C   UNL     1     -62.747 -40.492 -65.784  0.00  0.00    +0.000 A 
ATOM      9  C   UNL     1     -62.272 -41.153 -66.926  0.00  0.00    +0.000 A 
ATOM     10 CL   UNL     1     -60.567 -41.442 -66.946  0.00  0.00    +0.000 Cl
ATOM     11  C   UNL     1     -63.173 -41.540 -67.939  0.00  0.00    +0.000 A 
ATOM     12  C   UNL     1     -62.749 -42.251 -69.172  0.00  0.00    +0.000 A 
ATOM     13  O   UNL     1     -61.573 -42.522 -69.344  0.00  0.00    +0.000 OA
ATOM     14  H   UNL     1     -66.411 -41.743 -68.528  0.00  0.00    +0.000 HD
ENDROOT
BRANCH   1  16
ATOM     15  C   UNL     1     -63.235 -44.978 -71.320  0.00  0.00    +0.000 C 
ATOM     16  C   UNL     1     -63.314 -43.472 -71.403  0.00  0.00    +0.000 C 
ATOM     17  O   UNL     1     -62.997 -42.912 -72.454  0.00  0.00    +0.000 OA
ENDBRANCH   1  16
BRANCH   2  18
ATOM     18  S   UNL     1     -66.433 -43.048 -70.909  0.00  0.00    +0.000 S 
ATOM     19  O   UNL     1     -67.514 -43.284 -69.888  0.00  0.00    +0.000 OA
BRANCH  18  20
ATOM     20  C   UNL     1     -66.926 -41.545 -71.827  0.00  0.00    +0.000 C 
BRANCH  20  21
ATOM     21  C   UNL     1     -67.362 -41.843 -73.227  0.00  0.00    +0.000 A 
ATOM     22  C   UNL     1     -68.316 -41.189 -74.050  0.00  0.00    +0.000 A 
ATOM     23  C   UNL     1     -68.291 -41.883 -75.236  0.00  0.00    +0.000 A 
ATOM     24  C   UNL     1     -69.038 -41.797 -76.504  0.00  0.00    +0.000 C 
ATOM     25  O   UNL     1     -67.354 -42.864 -75.150  0.00  0.00    +0.000 OA
ATOM     26  N   UNL     1     -66.765 -42.839 -73.899  0.00  0.00    +0.000 NA
ENDBRANCH  20  21
ENDBRANCH  18  20
ENDBRANCH   2  18
TORSDOF 4
