REMARK VINA RESULT:    -6.440     11.868     14.710
REMARK INTER + INTRA:          -8.661
REMARK INTER:                  -7.944
REMARK INTRA:                  -0.718
REMARK UNBOUND:                -0.716
REMARK  Name = 
REMARK  6 active torsions:
REMARK  status: ('A' for Active; 'I' for Inactive)
REMARK    1  A    between atoms: C_1  and  C_2
REMARK    2  A    between atoms: C_2  and  C_4
REMARK    3  A    between atoms: C_5  and  S_6
REMARK    4  A    between atoms: S_6  and  C_8
REMARK    5  A    between atoms: C_8  and  C_9
REMARK    6  A    between atoms: C_11  and  C_12
REMARK                            x       y       z     vdW  Elec       q    Type
REMARK                         _______ _______ _______ _____ _____    ______ ____
ROOT
ATOM      1  C   UNL     1     -56.799 -41.892 -63.465  0.00  0.00    +0.000 A 
ATOM      2  C   UNL     1     -55.694 -42.434 -62.907  0.00  0.00    +0.000 A 
ATOM      3  N   UNL     1     -55.571 -42.694 -61.555  0.00  0.00    +0.000 N 
ATOM      4  C   UNL     1     -56.523 -42.269 -60.611  0.00  0.00    +0.000 A 
ATOM      5  C   UNL     1     -56.327 -42.506 -59.239  0.00  0.00    +0.000 A 
ATOM      6 BR   UNL     1     -54.736 -43.328 -58.602  0.00  0.00    +0.000 Br
ATOM      7  C   UNL     1     -57.290 -42.137 -58.302  0.00  0.00    +0.000 A 
ATOM      8  C   UNL     1     -58.470 -41.537 -58.733  0.00  0.00    +0.000 A 
ATOM      9  C   UNL     1     -58.699 -41.313 -60.093  0.00  0.00    +0.000 A 
ATOM     10 CL   UNL     1     -60.205 -40.550 -60.470  0.00  0.00    +0.000 Cl
ATOM     11  C   UNL     1     -57.731 -41.699 -61.044  0.00  0.00    +0.000 A 
ATOM     12  C   UNL     1     -57.897 -41.504 -62.513  0.00  0.00    +0.000 A 
ATOM     13  O   UNL     1     -58.921 -40.984 -62.946  0.00  0.00    +0.000 OA
ATOM     14  H   UNL     1     -54.612 -42.751 -61.207  0.00  0.00    +0.000 HD
ENDROOT
BRANCH   1  16
ATOM     15  C   UNL     1     -57.499 -42.717 -65.840  0.00  0.00    +0.000 C 
ATOM     16  C   UNL     1     -56.968 -41.623 -64.941  0.00  0.00    +0.000 C 
ATOM     17  O   UNL     1     -56.675 -40.535 -65.439  0.00  0.00    +0.000 OA
ENDBRANCH   1  16
BRANCH   2  18
ATOM     18  S   UNL     1     -54.177 -42.710 -63.880  0.00  0.00    +0.000 S 
ATOM     19  O   UNL     1     -53.569 -41.336 -63.978  0.00  0.00    +0.000 OA
BRANCH  18  20
ATOM     20  C   UNL     1     -53.181 -43.615 -62.638  0.00  0.00    +0.000 C 
BRANCH  20  21
ATOM     21  C   UNL     1     -52.115 -44.451 -63.269  0.00  0.00    +0.000 A 
ATOM     22  C   UNL     1     -50.932 -44.066 -63.954  0.00  0.00    +0.000 A 
ATOM     23  C   UNL     1     -50.340 -45.250 -64.319  0.00  0.00    +0.000 A 
ATOM     24  C   UNL     1     -49.138 -45.610 -65.094  0.00  0.00    +0.000 C 
ATOM     25  O   UNL     1     -51.083 -46.282 -63.840  0.00  0.00    +0.000 OA
ATOM     26  N   UNL     1     -52.191 -45.788 -63.176  0.00  0.00    +0.000 NA
ENDBRANCH  20  21
ENDBRANCH  18  20
ENDBRANCH   2  18
TORSDOF 4
