REMARK VINA RESULT:    -6.253     13.560     14.743
REMARK INTER + INTRA:          -8.396
REMARK INTER:                  -7.500
REMARK INTRA:                  -0.896
REMARK UNBOUND:                -0.681
REMARK  Name = 
REMARK  6 active torsions:
REMARK  status: ('A' for Active; 'I' for Inactive)
REMARK    1  A    between atoms: C_1  and  C_2
REMARK    2  A    between atoms: C_2  and  C_4
REMARK    3  A    between atoms: C_5  and  S_6
REMARK    4  A    between atoms: S_6  and  C_8
REMARK    5  A    between atoms: C_8  and  C_9
REMARK    6  A    between atoms: C_11  and  C_12
REMARK                            x       y       z     vdW  Elec       q    Type
REMARK                         _______ _______ _______ _____ _____    ______ ____
ROOT
ATOM      1  C   UNL     1     -55.183 -43.114 -76.294  0.00  0.00    +0.000 A 
ATOM      2  C   UNL     1     -55.494 -41.946 -76.899  0.00  0.00    +0.000 A 
ATOM      3  N   UNL     1     -54.582 -40.929 -77.105  0.00  0.00    +0.000 N 
ATOM      4  C   UNL     1     -53.278 -40.959 -76.582  0.00  0.00    +0.000 A 
ATOM      5  C   UNL     1     -52.388 -39.892 -76.803  0.00  0.00    +0.000 A 
ATOM      6 BR   UNL     1     -52.935 -38.344 -77.762  0.00  0.00    +0.000 Br
ATOM      7  C   UNL     1     -51.078 -39.939 -76.333  0.00  0.00    +0.000 A 
ATOM      8  C   UNL     1     -50.640 -41.058 -75.634  0.00  0.00    +0.000 A 
ATOM      9  C   UNL     1     -51.497 -42.145 -75.419  0.00  0.00    +0.000 A 
ATOM     10 CL   UNL     1     -50.810 -43.458 -74.526  0.00  0.00    +0.000 Cl
ATOM     11  C   UNL     1     -52.816 -42.108 -75.916  0.00  0.00    +0.000 A 
ATOM     12  C   UNL     1     -53.785 -43.226 -75.748  0.00  0.00    +0.000 A 
ATOM     13  O   UNL     1     -53.458 -44.229 -75.121  0.00  0.00    +0.000 OA
ATOM     14  H   UNL     1     -54.981 -40.000 -77.236  0.00  0.00    +0.000 HD
ENDROOT
BRANCH   1  16
ATOM     15  C   UNL     1     -56.223 -45.336 -77.165  0.00  0.00    +0.000 C 
ATOM     16  C   UNL     1     -56.142 -44.260 -76.103  0.00  0.00    +0.000 C 
ATOM     17  O   UNL     1     -56.871 -44.338 -75.114  0.00  0.00    +0.000 OA
ENDBRANCH   1  16
BRANCH   2  18
ATOM     18  S   UNL     1     -57.216 -41.534 -77.343  0.00  0.00    +0.000 S 
ATOM     19  O   UNL     1     -57.202 -40.031 -77.434  0.00  0.00    +0.000 OA
BRANCH  18  20
ATOM     20  C   UNL     1     -57.234 -42.138 -79.070  0.00  0.00    +0.000 C 
BRANCH  20  21
ATOM     21  C   UNL     1     -55.892 -41.994 -79.707  0.00  0.00    +0.000 A 
ATOM     22  C   UNL     1     -54.949 -42.998 -80.049  0.00  0.00    +0.000 A 
ATOM     23  C   UNL     1     -53.913 -42.314 -80.638  0.00  0.00    +0.000 A 
ATOM     24  C   UNL     1     -52.610 -42.700 -81.213  0.00  0.00    +0.000 C 
ATOM     25  O   UNL     1     -54.216 -40.988 -80.664  0.00  0.00    +0.000 OA
ATOM     26  N   UNL     1     -55.458 -40.784 -80.090  0.00  0.00    +0.000 NA
ENDBRANCH  20  21
ENDBRANCH  18  20
ENDBRANCH   2  18
TORSDOF 4
