REMARK VINA RESULT:    -6.530     11.709     13.904
REMARK INTER + INTRA:          -9.349
REMARK INTER:                  -8.164
REMARK INTRA:                  -1.185
REMARK UNBOUND:                -0.910
REMARK  Name = 
REMARK  6 active torsions:
REMARK  status: ('A' for Active; 'I' for Inactive)
REMARK    1  A    between atoms: C_1  and  C_2
REMARK    2  A    between atoms: C_4  and  C_5
REMARK    3  A    between atoms: C_5  and  S_6
REMARK    4  A    between atoms: S_6  and  C_8
REMARK    5  A    between atoms: C_20  and  C_21
REMARK    6  A    between atoms: C_21  and  C_23
REMARK                            x       y       z     vdW  Elec       q    Type
REMARK                         _______ _______ _______ _____ _____    ______ ____
ROOT
ATOM      1  C   UNL     1     -55.225 -43.103 -77.816  0.00  0.00    +0.000 A 
ATOM      2  N   UNL     1     -55.843 -43.955 -78.751  0.00  0.00    +0.000 N 
ATOM      3  C   UNL     1     -56.299 -45.245 -78.365  0.00  0.00    +0.000 A 
ATOM      4  C   UNL     1     -57.247 -45.978 -79.103  0.00  0.00    +0.000 A 
ATOM      5 BR   UNL     1     -58.132 -45.211 -80.595  0.00  0.00    +0.000 Br
ATOM      6  C   UNL     1     -57.586 -47.291 -78.747  0.00  0.00    +0.000 A 
ATOM      7  C   UNL     1     -56.995 -47.878 -77.622  0.00  0.00    +0.000 A 
ATOM      8  C   UNL     1     -56.054 -47.171 -76.874  0.00  0.00    +0.000 A 
ATOM      9 CL   UNL     1     -55.438 -47.956 -75.465  0.00  0.00    +0.000 Cl
ATOM     10  C   UNL     1     -55.696 -45.870 -77.261  0.00  0.00    +0.000 A 
ATOM     11  C   UNL     1     -54.651 -45.079 -76.584  0.00  0.00    +0.000 A 
ATOM     12  O   UNL     1     -53.691 -45.610 -76.040  0.00  0.00    +0.000 OA
ATOM     13  C   UNL     1     -54.752 -43.583 -76.644  0.00  0.00    +0.000 A 
ATOM     14  H   UNL     1     -56.499 -43.451 -79.364  0.00  0.00    +0.000 HD
ENDROOT
BRANCH   1  15
ATOM     15  S   UNL     1     -55.548 -41.351 -78.149  0.00  0.00    +0.000 S 
ATOM     16  O   UNL     1     -56.540 -41.368 -79.280  0.00  0.00    +0.000 OA
BRANCH  15  17
ATOM     17  C   UNL     1     -54.033 -40.562 -78.768  0.00  0.00    +0.000 C 
BRANCH  17  21
ATOM     18  C   UNL     1     -50.129 -39.810 -75.541  0.00  0.00    +0.000 C 
ATOM     19  C   UNL     1     -51.157 -40.210 -76.519  0.00  0.00    +0.000 A 
ATOM     20  C   UNL     1     -52.367 -39.692 -76.917  0.00  0.00    +0.000 A 
ATOM     21  C   UNL     1     -52.784 -40.535 -77.972  0.00  0.00    +0.000 A 
ATOM     22  N   UNL     1     -51.908 -41.540 -78.147  0.00  0.00    +0.000 NA
ATOM     23  O   UNL     1     -50.892 -41.331 -77.237  0.00  0.00    +0.000 OA
ENDBRANCH  17  21
ENDBRANCH  15  17
ENDBRANCH   1  15
BRANCH  13  24
ATOM     24  C   UNL     1     -54.475 -42.911 -75.343  0.00  0.00    +0.000 C 
ATOM     25  O   UNL     1     -53.363 -42.480 -75.093  0.00  0.00    +0.000 OA
BRANCH  24  26
ATOM     26  C   UNL     1     -55.582 -42.734 -74.384  0.00  0.00    +0.000 C 
ATOM     27  C   UNL     1     -57.001 -42.956 -74.841  0.00  0.00    +0.000 C 
ATOM     28  C   UNL     1     -56.540 -41.572 -74.500  0.00  0.00    +0.000 C 
ENDBRANCH  24  26
ENDBRANCH  13  24
TORSDOF 5
