REMARK  Name = 
REMARK  6 active torsions:
REMARK  status: ('A' for Active; 'I' for Inactive)
REMARK    1  A    between atoms: C_1  and  C_2
REMARK    2  A    between atoms: C_2  and  C_4
REMARK    3  A    between atoms: C_5  and  S_6
REMARK    4  A    between atoms: S_6  and  C_8
REMARK    5  A    between atoms: C_8  and  C_9
REMARK    6  A    between atoms: C_11  and  C_12
REMARK                            x       y       z     vdW  Elec       q    Type
REMARK                         _______ _______ _______ _____ _____    ______ ____
ROOT
ATOM      1  C   UNL     1       3.278  -0.144  -1.254  0.00  0.00    +0.000 A 
ATOM      2  C   UNL     1       2.938   0.430  -2.432  0.00  0.00    +0.000 A 
ATOM      3  N   UNL     1       3.654   0.166  -3.581  0.00  0.00    +0.000 N 
ATOM      4  C   UNL     1       4.732  -0.722  -3.645  0.00  0.00    +0.000 A 
ATOM      5  C   UNL     1       5.427  -0.941  -4.847  0.00  0.00    +0.000 A 
ATOM      6 BR   UNL     1       4.863  -0.119  -6.464  0.00  0.00    +0.000 Br
ATOM      7  C   UNL     1       6.546  -1.771  -4.896  0.00  0.00    +0.000 A 
ATOM      8  C   UNL     1       7.000  -2.387  -3.732  0.00  0.00    +0.000 A 
ATOM      9  C   UNL     1       6.335  -2.184  -2.523  0.00  0.00    +0.000 A 
ATOM     10 CL   UNL     1       7.024  -2.991  -1.154  0.00  0.00    +0.000 Cl
ATOM     11  C   UNL     1       5.199  -1.350  -2.489  0.00  0.00    +0.000 A 
ATOM     12  C   UNL     1       4.417  -1.128  -1.260  0.00  0.00    +0.000 A 
ATOM     13  O   UNL     1       4.699  -1.795  -0.273  0.00  0.00    +0.000 OA
ATOM     14  H   UNL     1       3.222   0.450  -4.450  0.00  0.00    +0.000 HD
ENDROOT
BRANCH   1  16
ATOM     15  C   UNL     1       2.781  -1.061   1.092  0.00  0.00    +0.000 C 
ATOM     16  C   UNL     1       2.563   0.029   0.048  0.00  0.00    +0.000 C 
ATOM     17  O   UNL     1       1.848   0.973   0.255  0.00  0.00    +0.000 OA
ENDBRANCH   1  16
BRANCH   2  18
ATOM     18  S   UNL     1       1.581   1.663  -2.607  0.00  0.00    +0.000 S 
ATOM     19  O   UNL     1       2.274   2.875  -3.169  0.00  0.00    +0.000 OA
BRANCH  18  20
ATOM     20  C   UNL     1       0.551   0.984  -3.992  0.00  0.00    +0.000 C 
BRANCH  20  21
ATOM     21  C   UNL     1      -0.623   1.848  -4.301  0.00  0.00    +0.000 A 
ATOM     22  C   UNL     1      -0.650   3.161  -4.830  0.00  0.00    +0.000 A 
ATOM     23  C   UNL     1      -1.981   3.492  -4.846  0.00  0.00    +0.000 A 
ATOM     24  C   UNL     1      -2.732   4.697  -5.228  0.00  0.00    +0.000 C 
ATOM     25  O   UNL     1      -2.714   2.443  -4.390  0.00  0.00    +0.000 OA
ATOM     26  N   UNL     1      -1.868   1.398  -4.070  0.00  0.00    +0.000 NA
ENDBRANCH  20  21
ENDBRANCH  18  20
ENDBRANCH   2  18
TORSDOF 4
