REMARK VINA RESULT:    -7.232      0.000      0.000
REMARK INTER + INTRA:         -10.526
REMARK INTER:                  -9.346
REMARK INTRA:                  -1.180
REMARK UNBOUND:                -1.180
REMARK  Name = 
REMARK  6 active torsions:
REMARK  status: ('A' for Active; 'I' for Inactive)
REMARK    1  A    between atoms: C_1  and  C_2
REMARK    2  A    between atoms: C_2  and  C_4
REMARK    3  A    between atoms: C_5  and  S_6
REMARK    4  A    between atoms: S_6  and  C_8
REMARK    5  A    between atoms: C_8  and  C_9
REMARK    6  A    between atoms: C_12  and  C_13
REMARK                            x       y       z     vdW  Elec       q    Type
REMARK                         _______ _______ _______ _____ _____    ______ ____
ROOT
ATOM      1  C   UNL     1     -54.128 -43.033 -75.182  0.00  0.00    +0.000 A 
ATOM      2  C   UNL     1     -54.647 -42.632 -76.360  0.00  0.00    +0.000 A 
ATOM      3  N   UNL     1     -55.770 -41.833 -76.450  0.00  0.00    +0.000 N 
ATOM      4  C   UNL     1     -56.528 -41.427 -75.348  0.00  0.00    +0.000 A 
ATOM      5  C   UNL     1     -57.652 -40.594 -75.498  0.00  0.00    +0.000 A 
ATOM      6 BR   UNL     1     -58.232 -40.027 -77.214  0.00  0.00    +0.000 Br
ATOM      7  C   UNL     1     -58.374 -40.155 -74.388  0.00  0.00    +0.000 A 
ATOM      8  C   UNL     1     -57.982 -40.548 -73.110  0.00  0.00    +0.000 A 
ATOM      9  C   UNL     1     -56.862 -41.369 -72.935  0.00  0.00    +0.000 A 
ATOM     10 CL   UNL     1     -56.500 -41.775 -71.293  0.00  0.00    +0.000 Cl
ATOM     11  C   UNL     1     -56.122 -41.798 -74.054  0.00  0.00    +0.000 A 
ATOM     12  C   UNL     1     -54.904 -42.655 -73.948  0.00  0.00    +0.000 A 
ATOM     13  O   UNL     1     -54.548 -43.091 -72.860  0.00  0.00    +0.000 OA
ATOM     14  H   UNL     1     -56.155 -41.717 -77.394  0.00  0.00    +0.000 HD
ENDROOT
BRANCH   1  16
ATOM     15  C   UNL     1     -52.961 -45.341 -75.100  0.00  0.00    +0.000 C 
ATOM     16  C   UNL     1     -52.867 -43.833 -75.034  0.00  0.00    +0.000 C 
ATOM     17  O   UNL     1     -51.784 -43.293 -74.815  0.00  0.00    +0.000 OA
ENDBRANCH   1  16
BRANCH   2  18
ATOM     18  S   UNL     1     -54.040 -43.217 -77.974  0.00  0.00    +0.000 S 
ATOM     19  O   UNL     1     -55.306 -43.570 -78.713  0.00  0.00    +0.000 OA
BRANCH  18  20
ATOM     20  C   UNL     1     -53.404 -41.656 -78.683  0.00  0.00    +0.000 C 
BRANCH  20  21
ATOM     21  C   UNL     1     -52.407 -40.959 -77.772  0.00  0.00    +0.000 A 
ATOM     22  C   UNL     1     -51.149 -41.523 -77.511  0.00  0.00    +0.000 A 
ATOM     23  C   UNL     1     -50.228 -40.877 -76.679  0.00  0.00    +0.000 A 
ATOM     24  C   UNL     1     -50.540 -39.642 -76.107  0.00  0.00    +0.000 A 
ATOM     25  C   UNL     1     -51.787 -39.063 -76.371  0.00  0.00    +0.000 A 
ATOM     26  C   UNL     1     -52.712 -39.716 -77.194  0.00  0.00    +0.000 A 
BRANCH  24  27
ATOM     27  C   UNL     1     -49.594 -38.976 -75.253  0.00  0.00    +0.000 C 
ATOM     28  N   UNL     1     -48.827 -38.443 -74.566  0.00  0.00    +0.000 NA
ENDBRANCH  24  27
ENDBRANCH  20  21
ENDBRANCH  18  20
ENDBRANCH   2  18
TORSDOF 5
