REMARK VINA RESULT:    -6.157     12.116     14.847
REMARK INTER + INTRA:          -8.679
REMARK INTER:                  -8.010
REMARK INTRA:                  -0.669
REMARK UNBOUND:                -1.082
REMARK  Name = 
REMARK  6 active torsions:
REMARK  status: ('A' for Active; 'I' for Inactive)
REMARK    1  A    between atoms: C_1  and  C_2
REMARK    2  A    between atoms: C_2  and  C_4
REMARK    3  A    between atoms: C_5  and  S_6
REMARK    4  A    between atoms: S_6  and  C_8
REMARK    5  A    between atoms: C_8  and  C_9
REMARK    6  A    between atoms: C_11  and  C_12
REMARK                            x       y       z     vdW  Elec       q    Type
REMARK                         _______ _______ _______ _____ _____    ______ ____
ROOT
ATOM      1  C   UNL     1     -56.623 -41.920 -76.674  0.00  0.00    +0.000 A 
ATOM      2  C   UNL     1     -55.380 -41.705 -77.158  0.00  0.00    +0.000 A 
ATOM      3  N   UNL     1     -55.112 -41.459 -78.490  0.00  0.00    +0.000 N 
ATOM      4  C   UNL     1     -56.090 -41.556 -79.492  0.00  0.00    +0.000 A 
ATOM      5  C   UNL     1     -55.760 -41.341 -80.844  0.00  0.00    +0.000 A 
ATOM      6 BR   UNL     1     -53.965 -40.999 -81.367  0.00  0.00    +0.000 Br
ATOM      7  C   UNL     1     -56.734 -41.381 -81.836  0.00  0.00    +0.000 A 
ATOM      8  C   UNL     1     -58.059 -41.626 -81.488  0.00  0.00    +0.000 A 
ATOM      9  C   UNL     1     -58.419 -41.821 -80.148  0.00  0.00    +0.000 A 
ATOM     10 CL   UNL     1     -60.099 -42.124 -79.876  0.00  0.00    +0.000 Cl
ATOM     11  C   UNL     1     -57.435 -41.768 -79.140  0.00  0.00    +0.000 A 
ATOM     12  C   UNL     1     -57.734 -41.962 -77.693  0.00  0.00    +0.000 A 
ATOM     13  O   UNL     1     -58.878 -42.199 -77.333  0.00  0.00    +0.000 OA
ATOM     14  H   UNL     1     -54.158 -41.669 -78.791  0.00  0.00    +0.000 HD
ENDROOT
BRANCH   1  16
ATOM     15  C   UNL     1     -57.436 -41.004 -74.375  0.00  0.00    +0.000 C 
ATOM     16  C   UNL     1     -56.950 -42.157 -75.221  0.00  0.00    +0.000 C 
ATOM     17  O   UNL     1     -56.817 -43.267 -74.702  0.00  0.00    +0.000 OA
ENDBRANCH   1  16
BRANCH   2  18
ATOM     18  S   UNL     1     -53.906 -41.889 -76.100  0.00  0.00    +0.000 S 
ATOM     19  O   UNL     1     -53.586 -43.358 -76.200  0.00  0.00    +0.000 OA
BRANCH  18  20
ATOM     20  C   UNL     1     -52.675 -41.034 -77.151  0.00  0.00    +0.000 C 
BRANCH  20  21
ATOM     21  C   UNL     1     -51.483 -40.581 -76.373  0.00  0.00    +0.000 A 
ATOM     22  C   UNL     1     -51.024 -39.268 -76.086  0.00  0.00    +0.000 A 
ATOM     23  C   UNL     1     -49.887 -39.454 -75.339  0.00  0.00    +0.000 A 
ATOM     24  C   UNL     1     -48.876 -38.554 -74.754  0.00  0.00    +0.000 C 
ATOM     25  O   UNL     1     -49.699 -40.785 -75.142  0.00  0.00    +0.000 OA
ATOM     26  N   UNL     1     -50.699 -41.494 -75.781  0.00  0.00    +0.000 NA
ENDBRANCH  20  21
ENDBRANCH  18  20
ENDBRANCH   2  18
TORSDOF 4
