MODEL 1
REMARK VINA RESULT:    -6.764      0.000      0.000
REMARK INTER + INTRA:          -9.640
REMARK INTER:                  -8.741
REMARK INTRA:                  -0.899
REMARK UNBOUND:                -0.899
REMARK  Name = 
REMARK  6 active torsions:
REMARK  status: ('A' for Active; 'I' for Inactive)
REMARK    1  A    between atoms: C_1  and  C_2
REMARK    2  A    between atoms: C_4  and  C_5
REMARK    3  A    between atoms: C_5  and  S_6
REMARK    4  A    between atoms: S_6  and  C_8
REMARK    5  A    between atoms: C_20  and  C_21
REMARK    6  A    between atoms: C_21  and  C_23
REMARK                            x       y       z     vdW  Elec       q    Type
REMARK                         _______ _______ _______ _____ _____    ______ ____
ROOT
ATOM      1  C   UNL     1     -55.344 -43.275 -77.523  0.00  0.00    +0.000 A 
ATOM      2  N   UNL     1     -54.064 -43.425 -76.953  0.00  0.00    +0.000 N 
ATOM      3  C   UNL     1     -53.256 -42.288 -76.680  0.00  0.00    +0.000 A 
ATOM      4  C   UNL     1     -52.172 -42.314 -75.782  0.00  0.00    +0.000 A 
ATOM      5 BR   UNL     1     -51.817 -43.846 -74.721  0.00  0.00    +0.000 Br
ATOM      6  C   UNL     1     -51.334 -41.202 -75.624  0.00  0.00    +0.000 A 
ATOM      7  C   UNL     1     -51.591 -40.033 -76.349  0.00  0.00    +0.000 A 
ATOM      8  C   UNL     1     -52.660 -39.982 -77.244  0.00  0.00    +0.000 A 
ATOM      9 CL   UNL     1     -52.936 -38.472 -78.035  0.00  0.00    +0.000 Cl
ATOM     10  C   UNL     1     -53.470 -41.114 -77.419  0.00  0.00    +0.000 A 
ATOM     11  C   UNL     1     -54.569 -41.183 -78.403  0.00  0.00    +0.000 A 
ATOM     12  O   UNL     1     -54.535 -40.551 -79.451  0.00  0.00    +0.000 OA
ATOM     13  C   UNL     1     -55.707 -42.119 -78.121  0.00  0.00    +0.000 A 
ATOM     14  H   UNL     1     -54.052 -44.132 -76.206  0.00  0.00    +0.000 HD
ENDROOT
BRANCH   1  15
ATOM     15  S   UNL     1     -56.505 -44.553 -76.974  0.00  0.00    +0.000 S 
ATOM     16  O   UNL     1     -57.210 -43.931 -75.799  0.00  0.00    +0.000 OA
BRANCH  15  17
ATOM     17  C   UNL     1     -55.579 -45.988 -76.355  0.00  0.00    +0.000 C 
BRANCH  17  21
ATOM     18  C   UNL     1     -57.692 -50.401 -77.866  0.00  0.00    +0.000 C 
ATOM     19  C   UNL     1     -56.907 -49.245 -77.394  0.00  0.00    +0.000 A 
ATOM     20  C   UNL     1     -57.133 -47.891 -77.313  0.00  0.00    +0.000 A 
ATOM     21  C   UNL     1     -55.987 -47.377 -76.668  0.00  0.00    +0.000 A 
ATOM     22  N   UNL     1     -55.095 -48.357 -76.440  0.00  0.00    +0.000 NA
ATOM     23  O   UNL     1     -55.676 -49.523 -76.895  0.00  0.00    +0.000 OA
ENDBRANCH  17  21
ENDBRANCH  15  17
ENDBRANCH   1  15
BRANCH  13  24
ATOM     24  C   UNL     1     -57.048 -41.530 -78.397  0.00  0.00    +0.000 C 
ATOM     25  O   UNL     1     -57.733 -41.950 -79.313  0.00  0.00    +0.000 OA
BRANCH  24  26
ATOM     26  C   UNL     1     -57.552 -40.464 -77.511  0.00  0.00    +0.000 C 
ATOM     27  C   UNL     1     -57.121 -40.434 -76.067  0.00  0.00    +0.000 C 
ATOM     28  C   UNL     1     -58.542 -40.763 -76.409  0.00  0.00    +0.000 C 
ENDBRANCH  24  26
ENDBRANCH  13  24
TORSDOF 5
ENDMDL
MODEL 2
REMARK VINA RESULT:    -6.682      3.460      6.966
REMARK INTER + INTRA:          -9.534
REMARK INTER:                  -8.367
REMARK INTRA:                  -1.168
REMARK UNBOUND:                -0.899
REMARK  Name = 
REMARK  6 active torsions:
REMARK  status: ('A' for Active; 'I' for Inactive)
REMARK    1  A    between atoms: C_1  and  C_2
REMARK    2  A    between atoms: C_4  and  C_5
REMARK    3  A    between atoms: C_5  and  S_6
REMARK    4  A    between atoms: S_6  and  C_8
REMARK    5  A    between atoms: C_20  and  C_21
REMARK    6  A    between atoms: C_21  and  C_23
REMARK                            x       y       z     vdW  Elec       q    Type
REMARK                         _______ _______ _______ _____ _____    ______ ____
ROOT
ATOM      1  C   UNL     1     -54.783 -43.408 -78.196  0.00  0.00    +0.000 A 
ATOM      2  N   UNL     1     -54.910 -44.474 -79.107  0.00  0.00    +0.000 N 
ATOM      3  C   UNL     1     -55.286 -45.769 -78.657  0.00  0.00    +0.000 A 
ATOM      4  C   UNL     1     -55.804 -46.759 -79.513  0.00  0.00    +0.000 A 
ATOM      5 BR   UNL     1     -56.211 -46.372 -81.324  0.00  0.00    +0.000 Br
ATOM      6  C   UNL     1     -56.059 -48.058 -79.049  0.00  0.00    +0.000 A 
ATOM      7  C   UNL     1     -55.821 -48.373 -77.706  0.00  0.00    +0.000 A 
ATOM      8  C   UNL     1     -55.310 -47.407 -76.839  0.00  0.00    +0.000 A 
ATOM      9 CL   UNL     1     -55.120 -47.875 -75.187  0.00  0.00    +0.000 Cl
ATOM     10  C   UNL     1     -55.025 -46.122 -77.323  0.00  0.00    +0.000 A 
ATOM     11  C   UNL     1     -54.404 -45.063 -76.504  0.00  0.00    +0.000 A 
ATOM     12  O   UNL     1     -53.629 -45.325 -75.592  0.00  0.00    +0.000 OA
ATOM     13  C   UNL     1     -54.686 -43.636 -76.868  0.00  0.00    +0.000 A 
ATOM     14  H   UNL     1     -55.375 -44.188 -79.980  0.00  0.00    +0.000 HD
ENDROOT
BRANCH   1  15
ATOM     15  S   UNL     1     -55.211 -41.808 -78.933  0.00  0.00    +0.000 S 
ATOM     16  O   UNL     1     -55.659 -42.152 -80.327  0.00  0.00    +0.000 OA
BRANCH  15  17
ATOM     17  C   UNL     1     -53.715 -40.788 -79.079  0.00  0.00    +0.000 C 
BRANCH  17  21
ATOM     18  C   UNL     1     -49.997 -40.935 -75.561  0.00  0.00    +0.000 C 
ATOM     19  C   UNL     1     -51.109 -40.697 -76.500  0.00  0.00    +0.000 A 
ATOM     20  C   UNL     1     -51.645 -41.390 -77.559  0.00  0.00    +0.000 A 
ATOM     21  C   UNL     1     -52.765 -40.625 -77.954  0.00  0.00    +0.000 A 
ATOM     22  N   UNL     1     -52.852 -39.503 -77.218  0.00  0.00    +0.000 NA
ATOM     23  O   UNL     1     -51.815 -39.554 -76.310  0.00  0.00    +0.000 OA
ENDBRANCH  17  21
ENDBRANCH  15  17
ENDBRANCH   1  15
BRANCH  13  24
ATOM     24  C   UNL     1     -54.977 -42.764 -75.694  0.00  0.00    +0.000 C 
ATOM     25  O   UNL     1     -54.073 -42.207 -75.096  0.00  0.00    +0.000 OA
BRANCH  24  26
ATOM     26  C   UNL     1     -56.382 -42.549 -75.299  0.00  0.00    +0.000 C 
ATOM     27  C   UNL     1     -56.689 -41.929 -73.961  0.00  0.00    +0.000 C 
ATOM     28  C   UNL     1     -57.021 -43.370 -74.204  0.00  0.00    +0.000 C 
ENDBRANCH  24  26
ENDBRANCH  13  24
TORSDOF 5
ENDMDL
MODEL 3
REMARK VINA RESULT:    -6.657      3.686      6.544
REMARK INTER + INTRA:          -9.502
REMARK INTER:                  -8.630
REMARK INTRA:                  -0.872
REMARK UNBOUND:                -0.899
REMARK  Name = 
REMARK  6 active torsions:
REMARK  status: ('A' for Active; 'I' for Inactive)
REMARK    1  A    between atoms: C_1  and  C_2
REMARK    2  A    between atoms: C_4  and  C_5
REMARK    3  A    between atoms: C_5  and  S_6
REMARK    4  A    between atoms: S_6  and  C_8
REMARK    5  A    between atoms: C_20  and  C_21
REMARK    6  A    between atoms: C_21  and  C_23
REMARK                            x       y       z     vdW  Elec       q    Type
REMARK                         _______ _______ _______ _____ _____    ______ ____
ROOT
ATOM      1  C   UNL     1     -57.559 -43.080 -77.236  0.00  0.00    +0.000 A 
ATOM      2  N   UNL     1     -57.152 -44.388 -77.562  0.00  0.00    +0.000 N 
ATOM      3  C   UNL     1     -56.076 -45.006 -76.866  0.00  0.00    +0.000 A 
ATOM      4  C   UNL     1     -55.869 -46.398 -76.853  0.00  0.00    +0.000 A 
ATOM      5 BR   UNL     1     -57.131 -47.583 -77.627  0.00  0.00    +0.000 Br
ATOM      6  C   UNL     1     -54.735 -46.956 -76.247  0.00  0.00    +0.000 A 
ATOM      7  C   UNL     1     -53.804 -46.122 -75.618  0.00  0.00    +0.000 A 
ATOM      8  C   UNL     1     -53.989 -44.739 -75.617  0.00  0.00    +0.000 A 
ATOM      9 CL   UNL     1     -52.822 -43.804 -74.753  0.00  0.00    +0.000 Cl
ATOM     10  C   UNL     1     -55.109 -44.190 -76.258  0.00  0.00    +0.000 A 
ATOM     11  C   UNL     1     -55.344 -42.738 -76.382  0.00  0.00    +0.000 A 
ATOM     12  O   UNL     1     -54.419 -41.938 -76.444  0.00  0.00    +0.000 OA
ATOM     13  C   UNL     1     -56.761 -42.263 -76.512  0.00  0.00    +0.000 A 
ATOM     14  H   UNL     1     -57.951 -45.014 -77.729  0.00  0.00    +0.000 HD
ENDROOT
BRANCH   1  15
ATOM     15  S   UNL     1     -59.335 -42.821 -77.484  0.00  0.00    +0.000 S 
ATOM     16  O   UNL     1     -59.890 -44.209 -77.656  0.00  0.00    +0.000 OA
BRANCH  15  17
ATOM     17  C   UNL     1     -59.607 -41.930 -79.044  0.00  0.00    +0.000 C 
BRANCH  17  21
ATOM     18  C   UNL     1     -61.733 -37.275 -78.869  0.00  0.00    +0.000 C 
ATOM     19  C   UNL     1     -61.272 -38.663 -79.062  0.00  0.00    +0.000 A 
ATOM     20  C   UNL     1     -60.200 -39.397 -78.612  0.00  0.00    +0.000 A 
ATOM     21  C   UNL     1     -60.428 -40.699 -79.110  0.00  0.00    +0.000 A 
ATOM     22  N   UNL     1     -61.535 -40.726 -79.872  0.00  0.00    +0.000 NA
ATOM     23  O   UNL     1     -62.059 -39.450 -79.837  0.00  0.00    +0.000 OA
ENDBRANCH  17  21
ENDBRANCH  15  17
ENDBRANCH   1  15
BRANCH  13  24
ATOM     24  C   UNL     1     -57.073 -41.069 -75.676  0.00  0.00    +0.000 C 
ATOM     25  O   UNL     1     -57.370 -40.008 -76.198  0.00  0.00    +0.000 OA
BRANCH  24  26
ATOM     26  C   UNL     1     -57.061 -41.206 -74.208  0.00  0.00    +0.000 C 
ATOM     27  C   UNL     1     -57.615 -42.457 -73.576  0.00  0.00    +0.000 C 
ATOM     28  C   UNL     1     -58.341 -41.158 -73.407  0.00  0.00    +0.000 C 
ENDBRANCH  24  26
ENDBRANCH  13  24
TORSDOF 5
ENDMDL
MODEL 4
REMARK VINA RESULT:    -6.651     13.814     14.855
REMARK INTER + INTRA:          -9.494
REMARK INTER:                  -8.625
REMARK INTRA:                  -0.869
REMARK UNBOUND:                -0.899
REMARK  Name = 
REMARK  6 active torsions:
REMARK  status: ('A' for Active; 'I' for Inactive)
REMARK    1  A    between atoms: C_1  and  C_2
REMARK    2  A    between atoms: C_4  and  C_5
REMARK    3  A    between atoms: C_5  and  S_6
REMARK    4  A    between atoms: S_6  and  C_8
REMARK    5  A    between atoms: C_20  and  C_21
REMARK    6  A    between atoms: C_21  and  C_23
REMARK                            x       y       z     vdW  Elec       q    Type
REMARK                         _______ _______ _______ _____ _____    ______ ____
ROOT
ATOM      1  C   UNL     1     -57.494 -41.102 -62.679  0.00  0.00    +0.000 A 
ATOM      2  N   UNL     1     -57.062 -39.811 -62.318  0.00  0.00    +0.000 N 
ATOM      3  C   UNL     1     -56.009 -39.175 -63.031  0.00  0.00    +0.000 A 
ATOM      4  C   UNL     1     -55.788 -37.785 -62.996  0.00  0.00    +0.000 A 
ATOM      5 BR   UNL     1     -57.007 -36.622 -62.125  0.00  0.00    +0.000 Br
ATOM      6  C   UNL     1     -54.674 -37.212 -63.624  0.00  0.00    +0.000 A 
ATOM      7  C   UNL     1     -53.776 -38.028 -64.322  0.00  0.00    +0.000 A 
ATOM      8  C   UNL     1     -53.975 -39.408 -64.372  0.00  0.00    +0.000 A 
ATOM      9 CL   UNL     1     -52.852 -40.317 -65.318  0.00  0.00    +0.000 Cl
ATOM     10  C   UNL     1     -55.075 -39.973 -63.709  0.00  0.00    +0.000 A 
ATOM     11  C   UNL     1     -55.319 -41.427 -63.634  0.00  0.00    +0.000 A 
ATOM     12  O   UNL     1     -54.400 -42.236 -63.641  0.00  0.00    +0.000 OA
ATOM     13  C   UNL     1     -56.734 -41.895 -63.467  0.00  0.00    +0.000 A 
ATOM     14  H   UNL     1     -57.848 -39.186 -62.094  0.00  0.00    +0.000 HD
ENDROOT
BRANCH   1  15
ATOM     15  S   UNL     1     -59.262 -41.356 -62.371  0.00  0.00    +0.000 S 
ATOM     16  O   UNL     1     -59.774 -39.987 -62.013  0.00  0.00    +0.000 OA
BRANCH  15  17
ATOM     17  C   UNL     1     -59.477 -42.416 -60.912  0.00  0.00    +0.000 C 
BRANCH  17  21
ATOM     18  C   UNL     1     -61.860 -46.934 -61.271  0.00  0.00    +0.000 C 
ATOM     19  C   UNL     1     -61.337 -45.574 -61.044  0.00  0.00    +0.000 A 
ATOM     20  C   UNL     1     -60.177 -44.915 -61.378  0.00  0.00    +0.000 A 
ATOM     21  C   UNL     1     -60.376 -43.593 -60.925  0.00  0.00    +0.000 A 
ATOM     22  N   UNL     1     -61.558 -43.484 -60.292  0.00  0.00    +0.000 NA
ATOM     23  O   UNL     1     -62.155 -44.725 -60.371  0.00  0.00    +0.000 OA
ENDBRANCH  17  21
ENDBRANCH  15  17
ENDBRANCH   1  15
BRANCH  13  24
ATOM     24  C   UNL     1     -57.090 -43.052 -64.337  0.00  0.00    +0.000 C 
ATOM     25  O   UNL     1     -57.359 -44.135 -63.847  0.00  0.00    +0.000 OA
BRANCH  24  26
ATOM     26  C   UNL     1     -57.157 -42.850 -65.796  0.00  0.00    +0.000 C 
ATOM     27  C   UNL     1     -57.485 -41.484 -66.341  0.00  0.00    +0.000 C 
ATOM     28  C   UNL     1     -58.474 -42.600 -66.492  0.00  0.00    +0.000 C 
ENDBRANCH  24  26
ENDBRANCH  13  24
TORSDOF 5
ENDMDL
MODEL 5
REMARK VINA RESULT:    -6.563      3.070      5.521
REMARK INTER + INTRA:          -9.380
REMARK INTER:                  -8.334
REMARK INTRA:                  -1.046
REMARK UNBOUND:                -0.899
REMARK  Name = 
REMARK  6 active torsions:
REMARK  status: ('A' for Active; 'I' for Inactive)
REMARK    1  A    between atoms: C_1  and  C_2
REMARK    2  A    between atoms: C_4  and  C_5
REMARK    3  A    between atoms: C_5  and  S_6
REMARK    4  A    between atoms: S_6  and  C_8
REMARK    5  A    between atoms: C_20  and  C_21
REMARK    6  A    between atoms: C_21  and  C_23
REMARK                            x       y       z     vdW  Elec       q    Type
REMARK                         _______ _______ _______ _____ _____    ______ ____
ROOT
ATOM      1  C   UNL     1     -56.287 -41.782 -77.408  0.00  0.00    +0.000 A 
ATOM      2  N   UNL     1     -55.364 -40.729 -77.262  0.00  0.00    +0.000 N 
ATOM      3  C   UNL     1     -54.030 -40.989 -76.842  0.00  0.00    +0.000 A 
ATOM      4  C   UNL     1     -52.971 -40.085 -77.044  0.00  0.00    +0.000 A 
ATOM      5 BR   UNL     1     -53.213 -38.506 -78.068  0.00  0.00    +0.000 Br
ATOM      6  C   UNL     1     -51.696 -40.332 -76.517  0.00  0.00    +0.000 A 
ATOM      7  C   UNL     1     -51.460 -41.510 -75.799  0.00  0.00    +0.000 A 
ATOM      8  C   UNL     1     -52.494 -42.422 -75.587  0.00  0.00    +0.000 A 
ATOM      9 CL   UNL     1     -52.082 -43.876 -74.752  0.00  0.00    +0.000 Cl
ATOM     10  C   UNL     1     -53.774 -42.146 -76.089  0.00  0.00    +0.000 A 
ATOM     11  C   UNL     1     -54.947 -43.007 -75.843  0.00  0.00    +0.000 A 
ATOM     12  O   UNL     1     -55.056 -43.671 -74.819  0.00  0.00    +0.000 OA
ATOM     13  C   UNL     1     -56.056 -42.992 -76.852  0.00  0.00    +0.000 A 
ATOM     14  H   UNL     1     -55.430 -40.044 -78.027  0.00  0.00    +0.000 HD
ENDROOT
BRANCH   1  15
ATOM     15  S   UNL     1     -57.494 -41.473 -78.725  0.00  0.00    +0.000 S 
ATOM     16  O   UNL     1     -58.558 -42.512 -78.501  0.00  0.00    +0.000 OA
BRANCH  15  17
ATOM     17  C   UNL     1     -56.731 -41.814 -80.338  0.00  0.00    +0.000 C 
BRANCH  17  21
ATOM     18  C   UNL     1     -51.655 -42.368 -80.716  0.00  0.00    +0.000 C 
ATOM     19  C   UNL     1     -53.093 -42.043 -80.740  0.00  0.00    +0.000 A 
ATOM     20  C   UNL     1     -54.224 -42.625 -80.218  0.00  0.00    +0.000 A 
ATOM     21  C   UNL     1     -55.267 -41.730 -80.545  0.00  0.00    +0.000 A 
ATOM     22  N   UNL     1     -54.797 -40.707 -81.282  0.00  0.00    +0.000 NA
ATOM     23  O   UNL     1     -53.437 -40.908 -81.399  0.00  0.00    +0.000 OA
ENDBRANCH  17  21
ENDBRANCH  15  17
ENDBRANCH   1  15
BRANCH  13  24
ATOM     24  C   UNL     1     -56.583 -44.346 -77.184  0.00  0.00    +0.000 C 
ATOM     25  O   UNL     1     -57.684 -44.695 -76.793  0.00  0.00    +0.000 OA
BRANCH  24  26
ATOM     26  C   UNL     1     -55.771 -45.238 -78.034  0.00  0.00    +0.000 C 
ATOM     27  C   UNL     1     -56.203 -46.667 -78.233  0.00  0.00    +0.000 C 
ATOM     28  C   UNL     1     -54.969 -46.370 -77.438  0.00  0.00    +0.000 C 
ENDBRANCH  24  26
ENDBRANCH  13  24
TORSDOF 5
ENDMDL
MODEL 6
REMARK VINA RESULT:    -6.227      4.053      6.769
REMARK INTER + INTRA:          -8.946
REMARK INTER:                  -8.229
REMARK INTRA:                  -0.717
REMARK UNBOUND:                -0.899
REMARK  Name = 
REMARK  6 active torsions:
REMARK  status: ('A' for Active; 'I' for Inactive)
REMARK    1  A    between atoms: C_1  and  C_2
REMARK    2  A    between atoms: C_4  and  C_5
REMARK    3  A    between atoms: C_5  and  S_6
REMARK    4  A    between atoms: S_6  and  C_8
REMARK    5  A    between atoms: C_20  and  C_21
REMARK    6  A    between atoms: C_21  and  C_23
REMARK                            x       y       z     vdW  Elec       q    Type
REMARK                         _______ _______ _______ _____ _____    ______ ____
ROOT
ATOM      1  C   UNL     1     -57.158 -41.077 -77.392  0.00  0.00    +0.000 A 
ATOM      2  N   UNL     1     -56.145 -40.540 -78.209  0.00  0.00    +0.000 N 
ATOM      3  C   UNL     1     -54.817 -41.046 -78.143  0.00  0.00    +0.000 A 
ATOM      4  C   UNL     1     -53.869 -40.849 -79.163  0.00  0.00    +0.000 A 
ATOM      5 BR   UNL     1     -54.353 -40.034 -80.806  0.00  0.00    +0.000 Br
ATOM      6  C   UNL     1     -52.540 -41.270 -79.009  0.00  0.00    +0.000 A 
ATOM      7  C   UNL     1     -52.152 -41.922 -77.833  0.00  0.00    +0.000 A 
ATOM      8  C   UNL     1     -53.075 -42.130 -76.808  0.00  0.00    +0.000 A 
ATOM      9 CL   UNL     1     -52.516 -43.007 -75.430  0.00  0.00    +0.000 Cl
ATOM     10  C   UNL     1     -54.393 -41.672 -76.960  0.00  0.00    +0.000 A 
ATOM     11  C   UNL     1     -55.415 -41.770 -75.900  0.00  0.00    +0.000 A 
ATOM     12  O   UNL     1     -55.116 -41.737 -74.712  0.00  0.00    +0.000 OA
ATOM     13  C   UNL     1     -56.855 -41.833 -76.314  0.00  0.00    +0.000 A 
ATOM     14  H   UNL     1     -56.472 -40.360 -79.168  0.00  0.00    +0.000 HD
ENDROOT
BRANCH   1  15
ATOM     15  S   UNL     1     -58.789 -41.026 -78.181  0.00  0.00    +0.000 S 
ATOM     16  O   UNL     1     -58.525 -41.444 -79.602  0.00  0.00    +0.000 OA
BRANCH  15  17
ATOM     17  C   UNL     1     -59.389 -39.312 -78.222  0.00  0.00    +0.000 C 
BRANCH  17  21
ATOM     18  C   UNL     1     -63.714 -37.231 -80.006  0.00  0.00    +0.000 C 
ATOM     19  C   UNL     1     -62.515 -37.997 -79.617  0.00  0.00    +0.000 A 
ATOM     20  C   UNL     1     -61.412 -37.736 -78.840  0.00  0.00    +0.000 A 
ATOM     21  C   UNL     1     -60.698 -38.954 -78.817  0.00  0.00    +0.000 A 
ATOM     22  N   UNL     1     -61.302 -39.870 -79.595  0.00  0.00    +0.000 NA
ATOM     23  O   UNL     1     -62.439 -39.266 -80.091  0.00  0.00    +0.000 OA
ENDBRANCH  17  21
ENDBRANCH  15  17
ENDBRANCH   1  15
BRANCH  13  24
ATOM     24  C   UNL     1     -57.650 -42.849 -75.567  0.00  0.00    +0.000 C 
ATOM     25  O   UNL     1     -57.466 -44.040 -75.755  0.00  0.00    +0.000 OA
BRANCH  24  26
ATOM     26  C   UNL     1     -58.627 -42.390 -74.563  0.00  0.00    +0.000 C 
ATOM     27  C   UNL     1     -58.464 -41.028 -73.938  0.00  0.00    +0.000 C 
ATOM     28  C   UNL     1     -58.250 -42.256 -73.107  0.00  0.00    +0.000 C 
ENDBRANCH  24  26
ENDBRANCH  13  24
TORSDOF 5
ENDMDL
MODEL 7
REMARK VINA RESULT:    -6.072     14.031     15.392
REMARK INTER + INTRA:          -8.746
REMARK INTER:                  -7.721
REMARK INTRA:                  -1.025
REMARK UNBOUND:                -0.899
REMARK  Name = 
REMARK  6 active torsions:
REMARK  status: ('A' for Active; 'I' for Inactive)
REMARK    1  A    between atoms: C_1  and  C_2
REMARK    2  A    between atoms: C_4  and  C_5
REMARK    3  A    between atoms: C_5  and  S_6
REMARK    4  A    between atoms: S_6  and  C_8
REMARK    5  A    between atoms: C_20  and  C_21
REMARK    6  A    between atoms: C_21  and  C_23
REMARK                            x       y       z     vdW  Elec       q    Type
REMARK                         _______ _______ _______ _____ _____    ______ ____
ROOT
ATOM      1  C   UNL     1     -57.722 -40.753 -62.959  0.00  0.00    +0.000 A 
ATOM      2  N   UNL     1     -57.215 -39.487 -62.608  0.00  0.00    +0.000 N 
ATOM      3  C   UNL     1     -56.069 -38.959 -63.263  0.00  0.00    +0.000 A 
ATOM      4  C   UNL     1     -55.743 -37.590 -63.256  0.00  0.00    +0.000 A 
ATOM      5 BR   UNL     1     -56.924 -36.307 -62.509  0.00  0.00    +0.000 Br
ATOM      6  C   UNL     1     -54.546 -37.127 -63.820  0.00  0.00    +0.000 A 
ATOM      7  C   UNL     1     -53.670 -38.034 -64.427  0.00  0.00    +0.000 A 
ATOM      8  C   UNL     1     -53.973 -39.395 -64.449  0.00  0.00    +0.000 A 
ATOM      9 CL   UNL     1     -52.863 -40.421 -65.284  0.00  0.00    +0.000 Cl
ATOM     10  C   UNL     1     -55.157 -39.851 -63.848  0.00  0.00    +0.000 A 
ATOM     11  C   UNL     1     -55.519 -41.278 -63.747  0.00  0.00    +0.000 A 
ATOM     12  O   UNL     1     -54.668 -42.155 -63.664  0.00  0.00    +0.000 OA
ATOM     13  C   UNL     1     -56.975 -41.630 -63.666  0.00  0.00    +0.000 A 
ATOM     14  H   UNL     1     -57.963 -38.796 -62.459  0.00  0.00    +0.000 HD
ENDROOT
BRANCH   1  15
ATOM     15  S   UNL     1     -59.521 -40.860 -62.770  0.00  0.00    +0.000 S 
ATOM     16  O   UNL     1     -59.910 -39.534 -62.175  0.00  0.00    +0.000 OA
BRANCH  15  17
ATOM     17  C   UNL     1     -59.928 -42.144 -61.550  0.00  0.00    +0.000 C 
BRANCH  17  21
ATOM     18  C   UNL     1     -57.124 -42.189 -57.266  0.00  0.00    +0.000 C 
ATOM     19  C   UNL     1     -58.090 -42.104 -58.377  0.00  0.00    +0.000 A 
ATOM     20  C   UNL     1     -58.018 -42.290 -59.738  0.00  0.00    +0.000 A 
ATOM     21  C   UNL     1     -59.349 -42.140 -60.187  0.00  0.00    +0.000 A 
ATOM     22  N   UNL     1     -60.158 -41.814 -59.164  0.00  0.00    +0.000 NA
ATOM     23  O   UNL     1     -59.366 -41.794 -58.035  0.00  0.00    +0.000 OA
ENDBRANCH  17  21
ENDBRANCH  15  17
ENDBRANCH   1  15
BRANCH  13  24
ATOM     24  C   UNL     1     -57.360 -42.787 -64.523  0.00  0.00    +0.000 C 
ATOM     25  O   UNL     1     -57.391 -43.915 -64.064  0.00  0.00    +0.000 OA
BRANCH  24  26
ATOM     26  C   UNL     1     -57.749 -42.536 -65.924  0.00  0.00    +0.000 C 
ATOM     27  C   UNL     1     -57.838 -43.692 -66.887  0.00  0.00    +0.000 C 
ATOM     28  C   UNL     1     -56.752 -42.671 -67.050  0.00  0.00    +0.000 C 
ENDBRANCH  24  26
ENDBRANCH  13  24
TORSDOF 5
ENDMDL
MODEL 8
REMARK VINA RESULT:    -6.007     13.941     15.506
REMARK INTER + INTRA:          -8.661
REMARK INTER:                  -7.548
REMARK INTRA:                  -1.113
REMARK UNBOUND:                -0.899
REMARK  Name = 
REMARK  6 active torsions:
REMARK  status: ('A' for Active; 'I' for Inactive)
REMARK    1  A    between atoms: C_1  and  C_2
REMARK    2  A    between atoms: C_4  and  C_5
REMARK    3  A    between atoms: C_5  and  S_6
REMARK    4  A    between atoms: S_6  and  C_8
REMARK    5  A    between atoms: C_20  and  C_21
REMARK    6  A    between atoms: C_21  and  C_23
REMARK                            x       y       z     vdW  Elec       q    Type
REMARK                         _______ _______ _______ _____ _____    ______ ____
ROOT
ATOM      1  C   UNL     1     -56.525 -39.952 -63.624  0.00  0.00    +0.000 A 
ATOM      2  N   UNL     1     -57.739 -39.934 -62.911  0.00  0.00    +0.000 N 
ATOM      3  C   UNL     1     -58.130 -38.780 -62.178  0.00  0.00    +0.000 A 
ATOM      4  C   UNL     1     -59.458 -38.538 -61.779  0.00  0.00    +0.000 A 
ATOM      5 BR   UNL     1     -60.874 -39.662 -62.354  0.00  0.00    +0.000 Br
ATOM      6  C   UNL     1     -59.782 -37.445 -60.963  0.00  0.00    +0.000 A 
ATOM      7  C   UNL     1     -58.776 -36.561 -60.558  0.00  0.00    +0.000 A 
ATOM      8  C   UNL     1     -57.453 -36.779 -60.942  0.00  0.00    +0.000 A 
ATOM      9 CL   UNL     1     -56.298 -35.592 -60.451  0.00  0.00    +0.000 Cl
ATOM     10  C   UNL     1     -57.136 -37.897 -61.729  0.00  0.00    +0.000 A 
ATOM     11  C   UNL     1     -55.757 -38.256 -62.113  0.00  0.00    +0.000 A 
ATOM     12  O   UNL     1     -54.799 -37.989 -61.399  0.00  0.00    +0.000 OA
ATOM     13  C   UNL     1     -55.560 -39.039 -63.377  0.00  0.00    +0.000 A 
ATOM     14  H   UNL     1     -58.507 -40.369 -63.440  0.00  0.00    +0.000 HD
ENDROOT
BRANCH   1  15
ATOM     15  S   UNL     1     -56.609 -40.975 -65.118  0.00  0.00    +0.000 S 
ATOM     16  O   UNL     1     -58.083 -41.143 -65.367  0.00  0.00    +0.000 OA
BRANCH  15  17
ATOM     17  C   UNL     1     -55.926 -42.621 -64.765  0.00  0.00    +0.000 C 
BRANCH  17  21
ATOM     18  C   UNL     1     -54.006 -44.161 -60.275  0.00  0.00    +0.000 C 
ATOM     19  C   UNL     1     -54.735 -43.668 -61.459  0.00  0.00    +0.000 A 
ATOM     20  C   UNL     1     -54.410 -43.464 -62.779  0.00  0.00    +0.000 A 
ATOM     21  C   UNL     1     -55.621 -43.063 -63.385  0.00  0.00    +0.000 A 
ATOM     22  N   UNL     1     -56.598 -42.963 -62.466  0.00  0.00    +0.000 NA
ATOM     23  O   UNL     1     -56.038 -43.345 -61.264  0.00  0.00    +0.000 OA
ENDBRANCH  17  21
ENDBRANCH  15  17
ENDBRANCH   1  15
BRANCH  13  24
ATOM     24  C   UNL     1     -54.429 -38.548 -64.216  0.00  0.00    +0.000 C 
ATOM     25  O   UNL     1     -54.505 -37.476 -64.791  0.00  0.00    +0.000 OA
BRANCH  24  26
ATOM     26  C   UNL     1     -53.199 -39.358 -64.297  0.00  0.00    +0.000 C 
ATOM     27  C   UNL     1     -52.225 -39.116 -65.422  0.00  0.00    +0.000 C 
ATOM     28  C   UNL     1     -53.013 -40.390 -65.384  0.00  0.00    +0.000 C 
ENDBRANCH  24  26
ENDBRANCH  13  24
TORSDOF 5
ENDMDL
MODEL 9
REMARK VINA RESULT:    -5.894     24.700     26.589
REMARK INTER + INTRA:          -8.516
REMARK INTER:                  -7.699
REMARK INTRA:                  -0.817
REMARK UNBOUND:                -0.899
REMARK  Name = 
REMARK  6 active torsions:
REMARK  status: ('A' for Active; 'I' for Inactive)
REMARK    1  A    between atoms: C_1  and  C_2
REMARK    2  A    between atoms: C_4  and  C_5
REMARK    3  A    between atoms: C_5  and  S_6
REMARK    4  A    between atoms: S_6  and  C_8
REMARK    5  A    between atoms: C_20  and  C_21
REMARK    6  A    between atoms: C_21  and  C_23
REMARK                            x       y       z     vdW  Elec       q    Type
REMARK                         _______ _______ _______ _____ _____    ______ ____
ROOT
ATOM      1  C   UNL     1     -66.441 -49.258 -54.467  0.00  0.00    +0.000 A 
ATOM      2  N   UNL     1     -67.153 -50.193 -55.243  0.00  0.00    +0.000 N 
ATOM      3  C   UNL     1     -67.529 -51.450 -54.695  0.00  0.00    +0.000 A 
ATOM      4  C   UNL     1     -68.547 -52.253 -55.244  0.00  0.00    +0.000 A 
ATOM      5 BR   UNL     1     -69.627 -51.625 -56.671  0.00  0.00    +0.000 Br
ATOM      6  C   UNL     1     -68.811 -53.534 -54.739  0.00  0.00    +0.000 A 
ATOM      7  C   UNL     1     -68.072 -54.016 -53.653  0.00  0.00    +0.000 A 
ATOM      8  C   UNL     1     -67.060 -53.238 -53.091  0.00  0.00    +0.000 A 
ATOM      9 CL   UNL     1     -66.256 -53.893 -51.711  0.00  0.00    +0.000 Cl
ATOM     10  C   UNL     1     -66.781 -51.972 -53.628  0.00  0.00    +0.000 A 
ATOM     11  C   UNL     1     -65.676 -51.114 -53.157  0.00  0.00    +0.000 A 
ATOM     12  O   UNL     1     -64.644 -51.587 -52.697  0.00  0.00    +0.000 OA
ATOM     13  C   UNL     1     -65.815 -49.631 -53.329  0.00  0.00    +0.000 A 
ATOM     14  H   UNL     1     -67.891 -49.749 -55.807  0.00  0.00    +0.000 HD
ENDROOT
BRANCH   1  15
ATOM     15  S   UNL     1     -66.839 -47.544 -54.902  0.00  0.00    +0.000 S 
ATOM     16  O   UNL     1     -68.252 -47.359 -54.418  0.00  0.00    +0.000 OA
BRANCH  15  17
ATOM     17  C   UNL     1     -66.857 -47.366 -56.710  0.00  0.00    +0.000 C 
BRANCH  17  21
ATOM     18  C   UNL     1     -63.109 -46.658 -60.126  0.00  0.00    +0.000 C 
ATOM     19  C   UNL     1     -64.049 -46.791 -58.998  0.00  0.00    +0.000 A 
ATOM     20  C   UNL     1     -65.377 -47.126 -58.880  0.00  0.00    +0.000 A 
ATOM     21  C   UNL     1     -65.615 -47.151 -57.488  0.00  0.00    +0.000 A 
ATOM     22  N   UNL     1     -64.511 -46.784 -56.814  0.00  0.00    +0.000 NA
ATOM     23  O   UNL     1     -63.535 -46.561 -57.763  0.00  0.00    +0.000 OA
ENDBRANCH  17  21
ENDBRANCH  15  17
ENDBRANCH   1  15
BRANCH  13  24
ATOM     24  C   UNL     1     -65.392 -48.847 -52.134  0.00  0.00    +0.000 C 
ATOM     25  O   UNL     1     -66.131 -48.736 -51.172  0.00  0.00    +0.000 OA
BRANCH  24  26
ATOM     26  C   UNL     1     -64.044 -48.247 -52.117  0.00  0.00    +0.000 C 
ATOM     27  C   UNL     1     -63.705 -47.214 -51.074  0.00  0.00    +0.000 C 
ATOM     28  C   UNL     1     -63.823 -46.806 -52.511  0.00  0.00    +0.000 C 
ENDBRANCH  24  26
ENDBRANCH  13  24
TORSDOF 5
ENDMDL
MODEL 10
REMARK VINA RESULT:    -5.788     14.137     15.733
REMARK INTER + INTRA:          -8.379
REMARK INTER:                  -7.622
REMARK INTRA:                  -0.757
REMARK UNBOUND:                -0.899
REMARK  Name = 
REMARK  6 active torsions:
REMARK  status: ('A' for Active; 'I' for Inactive)
REMARK    1  A    between atoms: C_1  and  C_2
REMARK    2  A    between atoms: C_4  and  C_5
REMARK    3  A    between atoms: C_5  and  S_6
REMARK    4  A    between atoms: S_6  and  C_8
REMARK    5  A    between atoms: C_20  and  C_21
REMARK    6  A    between atoms: C_21  and  C_23
REMARK                            x       y       z     vdW  Elec       q    Type
REMARK                         _______ _______ _______ _____ _____    ______ ____
ROOT
ATOM      1  C   UNL     1     -56.938 -38.298 -62.742  0.00  0.00    +0.000 A 
ATOM      2  N   UNL     1     -56.800 -39.633 -63.168  0.00  0.00    +0.000 N 
ATOM      3  C   UNL     1     -55.547 -40.119 -63.631  0.00  0.00    +0.000 A 
ATOM      4  C   UNL     1     -55.232 -41.489 -63.698  0.00  0.00    +0.000 A 
ATOM      5 BR   UNL     1     -56.410 -42.800 -62.997  0.00  0.00    +0.000 Br
ATOM      6  C   UNL     1     -54.027 -41.930 -64.263  0.00  0.00    +0.000 A 
ATOM      7  C   UNL     1     -53.106 -40.993 -64.746  0.00  0.00    +0.000 A 
ATOM      8  C   UNL     1     -53.395 -39.630 -64.689  0.00  0.00    +0.000 A 
ATOM      9 CL   UNL     1     -52.163 -38.554 -65.244  0.00  0.00    +0.000 Cl
ATOM     10  C   UNL     1     -54.620 -39.204 -64.153  0.00  0.00    +0.000 A 
ATOM     11  C   UNL     1     -55.049 -37.792 -64.129  0.00  0.00    +0.000 A 
ATOM     12  O   UNL     1     -54.691 -36.994 -64.987  0.00  0.00    +0.000 OA
ATOM     13  C   UNL     1     -56.011 -37.367 -63.059  0.00  0.00    +0.000 A 
ATOM     14  H   UNL     1     -57.299 -40.291 -62.553  0.00  0.00    +0.000 HD
ENDROOT
BRANCH   1  15
ATOM     15  S   UNL     1     -58.167 -38.111 -61.424  0.00  0.00    +0.000 S 
ATOM     16  O   UNL     1     -57.359 -38.152 -60.156  0.00  0.00    +0.000 OA
BRANCH  15  17
ATOM     17  C   UNL     1     -59.269 -39.555 -61.413  0.00  0.00    +0.000 C 
BRANCH  17  21
ATOM     18  C   UNL     1     -63.954 -40.033 -63.423  0.00  0.00    +0.000 C 
ATOM     19  C   UNL     1     -62.693 -39.755 -62.710  0.00  0.00    +0.000 A 
ATOM     20  C   UNL     1     -61.419 -40.267 -62.765  0.00  0.00    +0.000 A 
ATOM     21  C   UNL     1     -60.677 -39.470 -61.865  0.00  0.00    +0.000 A 
ATOM     22  N   UNL     1     -61.477 -38.579 -61.255  0.00  0.00    +0.000 NA
ATOM     23  O   UNL     1     -62.736 -38.761 -61.788  0.00  0.00    +0.000 OA
ENDBRANCH  17  21
ENDBRANCH  15  17
ENDBRANCH   1  15
BRANCH  13  24
ATOM     24  C   UNL     1     -55.662 -36.066 -62.422  0.00  0.00    +0.000 C 
ATOM     25  O   UNL     1     -54.834 -36.015 -61.529  0.00  0.00    +0.000 OA
BRANCH  24  26
ATOM     26  C   UNL     1     -56.301 -34.834 -62.923  0.00  0.00    +0.000 C 
ATOM     27  C   UNL     1     -56.395 -33.629 -62.024  0.00  0.00    +0.000 C 
ATOM     28  C   UNL     1     -57.639 -34.376 -62.395  0.00  0.00    +0.000 C 
ENDBRANCH  24  26
ENDBRANCH  13  24
TORSDOF 5
ENDMDL
MODEL 11
REMARK VINA RESULT:    -5.758     26.128     28.190
REMARK INTER + INTRA:          -8.340
REMARK INTER:                  -7.398
REMARK INTRA:                  -0.942
REMARK UNBOUND:                -0.899
REMARK  Name = 
REMARK  6 active torsions:
REMARK  status: ('A' for Active; 'I' for Inactive)
REMARK    1  A    between atoms: C_1  and  C_2
REMARK    2  A    between atoms: C_4  and  C_5
REMARK    3  A    between atoms: C_5  and  S_6
REMARK    4  A    between atoms: S_6  and  C_8
REMARK    5  A    between atoms: C_20  and  C_21
REMARK    6  A    between atoms: C_21  and  C_23
REMARK                            x       y       z     vdW  Elec       q    Type
REMARK                         _______ _______ _______ _____ _____    ______ ____
ROOT
ATOM      1  C   UNL     1     -66.265 -51.615 -53.547  0.00  0.00    +0.000 A 
ATOM      2  N   UNL     1     -66.600 -50.792 -54.639  0.00  0.00    +0.000 N 
ATOM      3  C   UNL     1     -67.874 -50.900 -55.262  0.00  0.00    +0.000 A 
ATOM      4  C   UNL     1     -68.422 -49.886 -56.070  0.00  0.00    +0.000 A 
ATOM      5 BR   UNL     1     -67.566 -48.203 -56.245  0.00  0.00    +0.000 Br
ATOM      6  C   UNL     1     -69.631 -50.078 -56.755  0.00  0.00    +0.000 A 
ATOM      7  C   UNL     1     -70.322 -51.287 -56.613  0.00  0.00    +0.000 A 
ATOM      8  C   UNL     1     -69.799 -52.306 -55.816  0.00  0.00    +0.000 A 
ATOM      9 CL   UNL     1     -70.763 -53.729 -55.649  0.00  0.00    +0.000 Cl
ATOM     10  C   UNL     1     -68.571 -52.114 -55.165  0.00  0.00    +0.000 A 
ATOM     11  C   UNL     1     -67.900 -53.162 -54.372  0.00  0.00    +0.000 A 
ATOM     12  O   UNL     1     -68.030 -54.352 -54.633  0.00  0.00    +0.000 OA
ATOM     13  C   UNL     1     -66.978 -52.729 -53.271  0.00  0.00    +0.000 A 
ATOM     14  H   UNL     1     -66.286 -49.821 -54.506  0.00  0.00    +0.000 HD
ENDROOT
BRANCH   1  15
ATOM     15  S   UNL     1     -65.145 -50.799 -52.378  0.00  0.00    +0.000 S 
ATOM     16  O   UNL     1     -66.046 -49.913 -51.561  0.00  0.00    +0.000 OA
BRANCH  15  17
ATOM     17  C   UNL     1     -64.000 -49.721 -53.287  0.00  0.00    +0.000 C 
BRANCH  17  21
ATOM     18  C   UNL     1     -63.835 -44.724 -52.180  0.00  0.00    +0.000 C 
ATOM     19  C   UNL     1     -63.927 -46.102 -52.698  0.00  0.00    +0.000 A 
ATOM     20  C   UNL     1     -63.702 -47.351 -52.169  0.00  0.00    +0.000 A 
ATOM     21  C   UNL     1     -64.077 -48.244 -53.197  0.00  0.00    +0.000 A 
ATOM     22  N   UNL     1     -64.437 -47.568 -54.302  0.00  0.00    +0.000 NA
ATOM     23  O   UNL     1     -64.343 -46.229 -53.983  0.00  0.00    +0.000 OA
ENDBRANCH  17  21
ENDBRANCH  15  17
ENDBRANCH   1  15
BRANCH  13  24
ATOM     24  C   UNL     1     -67.144 -53.506 -52.010  0.00  0.00    +0.000 C 
ATOM     25  O   UNL     1     -66.442 -54.477 -51.784  0.00  0.00    +0.000 OA
BRANCH  24  26
ATOM     26  C   UNL     1     -68.138 -53.051 -51.020  0.00  0.00    +0.000 C 
ATOM     27  C   UNL     1     -68.794 -54.059 -50.111  0.00  0.00    +0.000 C 
ATOM     28  C   UNL     1     -69.604 -53.381 -51.174  0.00  0.00    +0.000 C 
ENDBRANCH  24  26
ENDBRANCH  13  24
TORSDOF 5
ENDMDL
MODEL 12
REMARK VINA RESULT:    -5.747      2.996      3.924
REMARK INTER + INTRA:          -8.325
REMARK INTER:                  -7.427
REMARK INTRA:                  -0.898
REMARK UNBOUND:                -0.899
REMARK  Name = 
REMARK  6 active torsions:
REMARK  status: ('A' for Active; 'I' for Inactive)
REMARK    1  A    between atoms: C_1  and  C_2
REMARK    2  A    between atoms: C_4  and  C_5
REMARK    3  A    between atoms: C_5  and  S_6
REMARK    4  A    between atoms: S_6  and  C_8
REMARK    5  A    between atoms: C_20  and  C_21
REMARK    6  A    between atoms: C_21  and  C_23
REMARK                            x       y       z     vdW  Elec       q    Type
REMARK                         _______ _______ _______ _____ _____    ______ ____
ROOT
ATOM      1  C   UNL     1     -55.291 -43.780 -78.496  0.00  0.00    +0.000 A 
ATOM      2  N   UNL     1     -55.519 -43.454 -79.847  0.00  0.00    +0.000 N 
ATOM      3  C   UNL     1     -54.999 -42.251 -80.399  0.00  0.00    +0.000 A 
ATOM      4  C   UNL     1     -54.845 -42.045 -81.782  0.00  0.00    +0.000 A 
ATOM      5 BR   UNL     1     -55.157 -43.447 -83.022  0.00  0.00    +0.000 Br
ATOM      6  C   UNL     1     -54.433 -40.805 -82.289  0.00  0.00    +0.000 A 
ATOM      7  C   UNL     1     -54.142 -39.758 -81.406  0.00  0.00    +0.000 A 
ATOM      8  C   UNL     1     -54.286 -39.939 -80.031  0.00  0.00    +0.000 A 
ATOM      9 CL   UNL     1     -53.833 -38.611 -79.024  0.00  0.00    +0.000 Cl
ATOM     10  C   UNL     1     -54.733 -41.174 -79.538  0.00  0.00    +0.000 A 
ATOM     11  C   UNL     1     -54.997 -41.432 -78.109  0.00  0.00    +0.000 A 
ATOM     12  O   UNL     1     -55.367 -40.544 -77.351  0.00  0.00    +0.000 OA
ATOM     13  C   UNL     1     -54.876 -42.843 -77.615  0.00  0.00    +0.000 A 
ATOM     14  H   UNL     1     -55.421 -44.270 -80.466  0.00  0.00    +0.000 HD
ENDROOT
BRANCH   1  15
ATOM     15  S   UNL     1     -55.176 -45.568 -78.220  0.00  0.00    +0.000 S 
ATOM     16  O   UNL     1     -55.258 -46.160 -79.601  0.00  0.00    +0.000 OA
BRANCH  15  17
ATOM     17  C   UNL     1     -56.635 -46.134 -77.298  0.00  0.00    +0.000 C 
BRANCH  17  21
ATOM     18  C   UNL     1     -57.798 -51.117 -77.491  0.00  0.00    +0.000 C 
ATOM     19  C   UNL     1     -57.669 -49.648 -77.477  0.00  0.00    +0.000 A 
ATOM     20  C   UNL     1     -56.652 -48.769 -77.188  0.00  0.00    +0.000 A 
ATOM     21  C   UNL     1     -57.192 -47.496 -77.473  0.00  0.00    +0.000 A 
ATOM     22  N   UNL     1     -58.480 -47.601 -77.844  0.00  0.00    +0.000 NA
ATOM     23  O   UNL     1     -58.772 -48.949 -77.846  0.00  0.00    +0.000 OA
ENDBRANCH  17  21
ENDBRANCH  15  17
ENDBRANCH   1  15
BRANCH  13  24
ATOM     24  C   UNL     1     -54.160 -42.963 -76.313  0.00  0.00    +0.000 C 
ATOM     25  O   UNL     1     -52.970 -42.712 -76.234  0.00  0.00    +0.000 OA
BRANCH  24  26
ATOM     26  C   UNL     1     -54.928 -43.343 -75.112  0.00  0.00    +0.000 C 
ATOM     27  C   UNL     1     -56.424 -43.162 -75.100  0.00  0.00    +0.000 C 
ATOM     28  C   UNL     1     -55.566 -42.298 -74.227  0.00  0.00    +0.000 C 
ENDBRANCH  24  26
ENDBRANCH  13  24
TORSDOF 5
ENDMDL
MODEL 13
REMARK VINA RESULT:    -5.687      3.247      4.874
REMARK INTER + INTRA:          -8.248
REMARK INTER:                  -7.109
REMARK INTRA:                  -1.139
REMARK UNBOUND:                -0.899
REMARK  Name = 
REMARK  6 active torsions:
REMARK  status: ('A' for Active; 'I' for Inactive)
REMARK    1  A    between atoms: C_1  and  C_2
REMARK    2  A    between atoms: C_4  and  C_5
REMARK    3  A    between atoms: C_5  and  S_6
REMARK    4  A    between atoms: S_6  and  C_8
REMARK    5  A    between atoms: C_20  and  C_21
REMARK    6  A    between atoms: C_21  and  C_23
REMARK                            x       y       z     vdW  Elec       q    Type
REMARK                         _______ _______ _______ _____ _____    ______ ____
ROOT
ATOM      1  C   UNL     1     -56.395 -41.651 -77.279  0.00  0.00    +0.000 A 
ATOM      2  N   UNL     1     -55.432 -40.626 -77.198  0.00  0.00    +0.000 N 
ATOM      3  C   UNL     1     -54.088 -40.922 -76.841  0.00  0.00    +0.000 A 
ATOM      4  C   UNL     1     -53.013 -40.056 -77.112  0.00  0.00    +0.000 A 
ATOM      5 BR   UNL     1     -53.258 -38.485 -78.147  0.00  0.00    +0.000 Br
ATOM      6  C   UNL     1     -51.720 -40.335 -76.646  0.00  0.00    +0.000 A 
ATOM      7  C   UNL     1     -51.485 -41.510 -75.922  0.00  0.00    +0.000 A 
ATOM      8  C   UNL     1     -52.534 -42.385 -75.643  0.00  0.00    +0.000 A 
ATOM      9 CL   UNL     1     -52.126 -43.840 -74.806  0.00  0.00    +0.000 Cl
ATOM     10  C   UNL     1     -53.830 -42.076 -76.084  0.00  0.00    +0.000 A 
ATOM     11  C   UNL     1     -55.014 -42.896 -75.764  0.00  0.00    +0.000 A 
ATOM     12  O   UNL     1     -55.091 -43.540 -74.725  0.00  0.00    +0.000 OA
ATOM     13  C   UNL     1     -56.173 -42.859 -76.717  0.00  0.00    +0.000 A 
ATOM     14  H   UNL     1     -55.517 -39.950 -77.969  0.00  0.00    +0.000 HD
ENDROOT
BRANCH   1  15
ATOM     15  S   UNL     1     -57.656 -41.323 -78.538  0.00  0.00    +0.000 S 
ATOM     16  O   UNL     1     -58.957 -41.630 -77.846  0.00  0.00    +0.000 OA
BRANCH  15  17
ATOM     17  C   UNL     1     -57.473 -42.507 -79.903  0.00  0.00    +0.000 C 
BRANCH  17  21
ATOM     18  C   UNL     1     -61.101 -45.990 -80.865  0.00  0.00    +0.000 C 
ATOM     19  C   UNL     1     -60.177 -44.853 -80.701  0.00  0.00    +0.000 A 
ATOM     20  C   UNL     1     -59.016 -44.644 -79.995  0.00  0.00    +0.000 A 
ATOM     21  C   UNL     1     -58.602 -43.346 -80.368  0.00  0.00    +0.000 A 
ATOM     22  N   UNL     1     -59.501 -42.784 -81.194  0.00  0.00    +0.000 NA
ATOM     23  O   UNL     1     -60.483 -43.730 -81.400  0.00  0.00    +0.000 OA
ENDBRANCH  17  21
ENDBRANCH  15  17
ENDBRANCH   1  15
BRANCH  13  24
ATOM     24  C   UNL     1     -56.758 -44.201 -76.999  0.00  0.00    +0.000 C 
ATOM     25  O   UNL     1     -57.904 -44.458 -76.670  0.00  0.00    +0.000 OA
BRANCH  24  26
ATOM     26  C   UNL     1     -55.944 -45.194 -77.725  0.00  0.00    +0.000 C 
ATOM     27  C   UNL     1     -56.424 -46.619 -77.819  0.00  0.00    +0.000 C 
ATOM     28  C   UNL     1     -55.217 -46.296 -76.993  0.00  0.00    +0.000 C 
ENDBRANCH  24  26
ENDBRANCH  13  24
TORSDOF 5
ENDMDL
MODEL 14
REMARK VINA RESULT:    -5.641     25.037     27.079
REMARK INTER + INTRA:          -8.189
REMARK INTER:                  -7.412
REMARK INTRA:                  -0.777
REMARK UNBOUND:                -0.899
REMARK  Name = 
REMARK  6 active torsions:
REMARK  status: ('A' for Active; 'I' for Inactive)
REMARK    1  A    between atoms: C_1  and  C_2
REMARK    2  A    between atoms: C_4  and  C_5
REMARK    3  A    between atoms: C_5  and  S_6
REMARK    4  A    between atoms: S_6  and  C_8
REMARK    5  A    between atoms: C_20  and  C_21
REMARK    6  A    between atoms: C_21  and  C_23
REMARK                            x       y       z     vdW  Elec       q    Type
REMARK                         _______ _______ _______ _____ _____    ______ ____
ROOT
ATOM      1  C   UNL     1     -66.316 -50.278 -54.332  0.00  0.00    +0.000 A 
ATOM      2  N   UNL     1     -67.116 -50.033 -55.466  0.00  0.00    +0.000 N 
ATOM      3  C   UNL     1     -68.295 -50.792 -55.697  0.00  0.00    +0.000 A 
ATOM      4  C   UNL     1     -69.326 -50.367 -56.555  0.00  0.00    +0.000 A 
ATOM      5 BR   UNL     1     -69.297 -48.640 -57.340  0.00  0.00    +0.000 Br
ATOM      6  C   UNL     1     -70.421 -51.195 -56.841  0.00  0.00    +0.000 A 
ATOM      7  C   UNL     1     -70.508 -52.457 -56.242  0.00  0.00    +0.000 A 
ATOM      8  C   UNL     1     -69.500 -52.900 -55.386  0.00  0.00    +0.000 A 
ATOM      9 CL   UNL     1     -69.737 -54.440 -54.643  0.00  0.00    +0.000 Cl
ATOM     10  C   UNL     1     -68.392 -52.076 -55.137  0.00  0.00    +0.000 A 
ATOM     11  C   UNL     1     -67.238 -52.491 -54.316  0.00  0.00    +0.000 A 
ATOM     12  O   UNL     1     -66.887 -53.662 -54.243  0.00  0.00    +0.000 OA
ATOM     13  C   UNL     1     -66.445 -51.422 -53.625  0.00  0.00    +0.000 A 
ATOM     14  H   UNL     1     -67.227 -49.027 -55.654  0.00  0.00    +0.000 HD
ENDROOT
BRANCH   1  15
ATOM     15  S   UNL     1     -65.500 -48.781 -53.719  0.00  0.00    +0.000 S 
ATOM     16  O   UNL     1     -66.165 -48.512 -52.397  0.00  0.00    +0.000 OA
BRANCH  15  17
ATOM     17  C   UNL     1     -65.888 -47.386 -54.817  0.00  0.00    +0.000 C 
BRANCH  17  21
ATOM     18  C   UNL     1     -64.204 -46.600 -59.588  0.00  0.00    +0.000 C 
ATOM     19  C   UNL     1     -64.493 -46.767 -58.152  0.00  0.00    +0.000 A 
ATOM     20  C   UNL     1     -65.618 -47.070 -57.421  0.00  0.00    +0.000 A 
ATOM     21  C   UNL     1     -65.161 -47.164 -56.088  0.00  0.00    +0.000 A 
ATOM     22  N   UNL     1     -63.852 -46.865 -56.016  0.00  0.00    +0.000 NA
ATOM     23  O   UNL     1     -63.440 -46.620 -57.309  0.00  0.00    +0.000 OA
ENDBRANCH  17  21
ENDBRANCH  15  17
ENDBRANCH   1  15
BRANCH  13  24
ATOM     24  C   UNL     1     -66.092 -51.755 -52.215  0.00  0.00    +0.000 C 
ATOM     25  O   UNL     1     -64.946 -52.043 -51.915  0.00  0.00    +0.000 OA
BRANCH  24  26
ATOM     26  C   UNL     1     -67.142 -51.683 -51.182  0.00  0.00    +0.000 C 
ATOM     27  C   UNL     1     -67.167 -52.707 -50.077  0.00  0.00    +0.000 C 
ATOM     28  C   UNL     1     -68.247 -52.710 -51.116  0.00  0.00    +0.000 C 
ENDBRANCH  24  26
ENDBRANCH  13  24
TORSDOF 5
ENDMDL
MODEL 15
REMARK VINA RESULT:    -5.606      8.549     11.594
REMARK INTER + INTRA:          -8.144
REMARK INTER:                  -7.283
REMARK INTRA:                  -0.861
REMARK UNBOUND:                -0.899
REMARK  Name = 
REMARK  6 active torsions:
REMARK  status: ('A' for Active; 'I' for Inactive)
REMARK    1  A    between atoms: C_1  and  C_2
REMARK    2  A    between atoms: C_4  and  C_5
REMARK    3  A    between atoms: C_5  and  S_6
REMARK    4  A    between atoms: S_6  and  C_8
REMARK    5  A    between atoms: C_20  and  C_21
REMARK    6  A    between atoms: C_21  and  C_23
REMARK                            x       y       z     vdW  Elec       q    Type
REMARK                         _______ _______ _______ _____ _____    ______ ____
ROOT
ATOM      1  C   UNL     1     -63.691 -39.762 -80.799  0.00  0.00    +0.000 A 
ATOM      2  N   UNL     1     -63.896 -41.019 -80.200  0.00  0.00    +0.000 N 
ATOM      3  C   UNL     1     -62.847 -41.658 -79.483  0.00  0.00    +0.000 A 
ATOM      4  C   UNL     1     -63.071 -42.689 -78.551  0.00  0.00    +0.000 A 
ATOM      5 BR   UNL     1     -64.830 -43.188 -78.046  0.00  0.00    +0.000 Br
ATOM      6  C   UNL     1     -62.002 -43.367 -77.948  0.00  0.00    +0.000 A 
ATOM      7  C   UNL     1     -60.687 -42.996 -78.254  0.00  0.00    +0.000 A 
ATOM      8  C   UNL     1     -60.440 -41.976 -79.172  0.00  0.00    +0.000 A 
ATOM      9 CL   UNL     1     -58.787 -41.546 -79.425  0.00  0.00    +0.000 Cl
ATOM     10  C   UNL     1     -61.519 -41.330 -79.796  0.00  0.00    +0.000 A 
ATOM     11  C   UNL     1     -61.355 -40.301 -80.841  0.00  0.00    +0.000 A 
ATOM     12  O   UNL     1     -60.398 -40.304 -81.605  0.00  0.00    +0.000 OA
ATOM     13  C   UNL     1     -62.444 -39.281 -81.000  0.00  0.00    +0.000 A 
ATOM     14  H   UNL     1     -64.814 -41.087 -79.739  0.00  0.00    +0.000 HD
ENDROOT
BRANCH   1  15
ATOM     15  S   UNL     1     -65.195 -38.751 -80.827  0.00  0.00    +0.000 S 
ATOM     16  O   UNL     1     -66.184 -39.537 -80.009  0.00  0.00    +0.000 OA
BRANCH  15  17
ATOM     17  C   UNL     1     -65.839 -38.667 -82.524  0.00  0.00    +0.000 C 
BRANCH  17  21
ATOM     18  C   UNL     1     -64.988 -34.794 -85.764  0.00  0.00    +0.000 C 
ATOM     19  C   UNL     1     -65.414 -35.808 -84.781  0.00  0.00    +0.000 A 
ATOM     20  C   UNL     1     -64.929 -37.031 -84.382  0.00  0.00    +0.000 A 
ATOM     21  C   UNL     1     -65.779 -37.421 -83.323  0.00  0.00    +0.000 A 
ATOM     22  N   UNL     1     -66.758 -36.517 -83.147  0.00  0.00    +0.000 NA
ATOM     23  O   UNL     1     -66.524 -35.510 -84.060  0.00  0.00    +0.000 OA
ENDBRANCH  17  21
ENDBRANCH  15  17
ENDBRANCH   1  15
BRANCH  13  24
ATOM     24  C   UNL     1     -61.941 -37.890 -81.182  0.00  0.00    +0.000 C 
ATOM     25  O   UNL     1     -61.932 -37.373 -82.285  0.00  0.00    +0.000 OA
BRANCH  24  26
ATOM     26  C   UNL     1     -61.499 -37.134 -79.995  0.00  0.00    +0.000 C 
ATOM     27  C   UNL     1     -61.641 -37.750 -78.627  0.00  0.00    +0.000 C 
ATOM     28  C   UNL     1     -62.495 -36.578 -79.005  0.00  0.00    +0.000 C 
ENDBRANCH  24  26
ENDBRANCH  13  24
TORSDOF 5
ENDMDL
MODEL 16
REMARK VINA RESULT:    -5.483     14.693     16.675
REMARK INTER + INTRA:          -7.984
REMARK INTER:                  -7.221
REMARK INTRA:                  -0.763
REMARK UNBOUND:                -0.899
REMARK  Name = 
REMARK  6 active torsions:
REMARK  status: ('A' for Active; 'I' for Inactive)
REMARK    1  A    between atoms: C_1  and  C_2
REMARK    2  A    between atoms: C_4  and  C_5
REMARK    3  A    between atoms: C_5  and  S_6
REMARK    4  A    between atoms: S_6  and  C_8
REMARK    5  A    between atoms: C_20  and  C_21
REMARK    6  A    between atoms: C_21  and  C_23
REMARK                            x       y       z     vdW  Elec       q    Type
REMARK                         _______ _______ _______ _____ _____    ______ ____
ROOT
ATOM      1  C   UNL     1     -57.114 -37.921 -62.792  0.00  0.00    +0.000 A 
ATOM      2  N   UNL     1     -57.039 -39.287 -63.129  0.00  0.00    +0.000 N 
ATOM      3  C   UNL     1     -55.807 -39.865 -63.539  0.00  0.00    +0.000 A 
ATOM      4  C   UNL     1     -55.562 -41.251 -63.512  0.00  0.00    +0.000 A 
ATOM      5 BR   UNL     1     -56.815 -42.452 -62.746  0.00  0.00    +0.000 Br
ATOM      6  C   UNL     1     -54.374 -41.788 -64.028  0.00  0.00    +0.000 A 
ATOM      7  C   UNL     1     -53.400 -40.932 -64.556  0.00  0.00    +0.000 A 
ATOM      8  C   UNL     1     -53.619 -39.555 -64.592  0.00  0.00    +0.000 A 
ATOM      9 CL   UNL     1     -52.327 -38.582 -65.196  0.00  0.00    +0.000 Cl
ATOM     10  C   UNL     1     -54.827 -39.034 -64.105  0.00  0.00    +0.000 A 
ATOM     11  C   UNL     1     -55.184 -37.604 -64.179  0.00  0.00    +0.000 A 
ATOM     12  O   UNL     1     -54.775 -36.883 -65.081  0.00  0.00    +0.000 OA
ATOM     13  C   UNL     1     -56.136 -37.062 -63.154  0.00  0.00    +0.000 A 
ATOM     14  H   UNL     1     -57.579 -39.878 -62.481  0.00  0.00    +0.000 HD
ENDROOT
BRANCH   1  15
ATOM     15  S   UNL     1     -58.349 -37.587 -61.509  0.00  0.00    +0.000 S 
ATOM     16  O   UNL     1     -58.899 -38.943 -61.164  0.00  0.00    +0.000 OA
BRANCH  15  17
ATOM     17  C   UNL     1     -59.709 -36.611 -62.216  0.00  0.00    +0.000 C 
BRANCH  17  21
ATOM     18  C   UNL     1     -64.004 -35.154 -59.840  0.00  0.00    +0.000 C 
ATOM     19  C   UNL     1     -62.863 -35.763 -60.548  0.00  0.00    +0.000 A 
ATOM     20  C   UNL     1     -61.655 -35.299 -61.014  0.00  0.00    +0.000 A 
ATOM     21  C   UNL     1     -61.002 -36.448 -61.513  0.00  0.00    +0.000 A 
ATOM     22  N   UNL     1     -61.802 -37.524 -61.416  0.00  0.00    +0.000 NA
ATOM     23  O   UNL     1     -62.963 -37.090 -60.811  0.00  0.00    +0.000 OA
ENDBRANCH  17  21
ENDBRANCH  15  17
ENDBRANCH   1  15
BRANCH  13  24
ATOM     24  C   UNL     1     -55.729 -35.741 -62.597  0.00  0.00    +0.000 C 
ATOM     25  O   UNL     1     -56.239 -34.712 -63.007  0.00  0.00    +0.000 OA
BRANCH  24  26
ATOM     26  C   UNL     1     -54.733 -35.704 -61.509  0.00  0.00    +0.000 C 
ATOM     27  C   UNL     1     -54.108 -34.388 -61.121  0.00  0.00    +0.000 C 
ATOM     28  C   UNL     1     -53.274 -35.437 -61.792  0.00  0.00    +0.000 C 
ENDBRANCH  24  26
ENDBRANCH  13  24
TORSDOF 5
ENDMDL
MODEL 17
REMARK VINA RESULT:    -5.319     12.640     15.289
REMARK INTER + INTRA:          -7.773
REMARK INTER:                  -6.970
REMARK INTRA:                  -0.803
REMARK UNBOUND:                -0.899
REMARK  Name = 
REMARK  6 active torsions:
REMARK  status: ('A' for Active; 'I' for Inactive)
REMARK    1  A    between atoms: C_1  and  C_2
REMARK    2  A    between atoms: C_4  and  C_5
REMARK    3  A    between atoms: C_5  and  S_6
REMARK    4  A    between atoms: S_6  and  C_8
REMARK    5  A    between atoms: C_20  and  C_21
REMARK    6  A    between atoms: C_21  and  C_23
REMARK                            x       y       z     vdW  Elec       q    Type
REMARK                         _______ _______ _______ _____ _____    ______ ____
ROOT
ATOM      1  C   UNL     1     -66.251 -42.844 -67.649  0.00  0.00    +0.000 A 
ATOM      2  N   UNL     1     -65.093 -42.414 -66.974  0.00  0.00    +0.000 N 
ATOM      3  C   UNL     1     -63.888 -42.168 -67.689  0.00  0.00    +0.000 A 
ATOM      4  C   UNL     1     -62.837 -41.385 -67.176  0.00  0.00    +0.000 A 
ATOM      5 BR   UNL     1     -63.027 -40.439 -65.542  0.00  0.00    +0.000 Br
ATOM      6  C   UNL     1     -61.623 -41.258 -67.866  0.00  0.00    +0.000 A 
ATOM      7  C   UNL     1     -61.459 -41.898 -69.100  0.00  0.00    +0.000 A 
ATOM      8  C   UNL     1     -62.487 -42.677 -69.629  0.00  0.00    +0.000 A 
ATOM      9 CL   UNL     1     -62.212 -43.364 -71.190  0.00  0.00    +0.000 Cl
ATOM     10  C   UNL     1     -63.684 -42.825 -68.912  0.00  0.00    +0.000 A 
ATOM     11  C   UNL     1     -64.792 -43.696 -69.350  0.00  0.00    +0.000 A 
ATOM     12  O   UNL     1     -64.593 -44.711 -70.005  0.00  0.00    +0.000 OA
ATOM     13  C   UNL     1     -66.180 -43.348 -68.901  0.00  0.00    +0.000 A 
ATOM     14  H   UNL     1     -65.300 -41.705 -66.256  0.00  0.00    +0.000 HD
ENDROOT
BRANCH   1  15
ATOM     15  S   UNL     1     -67.774 -42.244 -66.871  0.00  0.00    +0.000 S 
ATOM     16  O   UNL     1     -68.743 -43.383 -67.029  0.00  0.00    +0.000 OA
BRANCH  15  17
ATOM     17  C   UNL     1     -68.427 -40.839 -67.821  0.00  0.00    +0.000 C 
BRANCH  17  21
ATOM     18  C   UNL     1     -70.941 -36.664 -66.251  0.00  0.00    +0.000 C 
ATOM     19  C   UNL     1     -70.148 -37.882 -66.502  0.00  0.00    +0.000 A 
ATOM     20  C   UNL     1     -69.977 -38.719 -67.579  0.00  0.00    +0.000 A 
ATOM     21  C   UNL     1     -68.994 -39.642 -67.158  0.00  0.00    +0.000 A 
ATOM     22  N   UNL     1     -68.649 -39.413 -65.879  0.00  0.00    +0.000 NA
ATOM     23  O   UNL     1     -69.372 -38.310 -65.475  0.00  0.00    +0.000 OA
ENDBRANCH  17  21
ENDBRANCH  15  17
ENDBRANCH   1  15
BRANCH  13  24
ATOM     24  C   UNL     1     -67.204 -43.459 -69.979  0.00  0.00    +0.000 C 
ATOM     25  O   UNL     1     -68.046 -44.340 -69.945  0.00  0.00    +0.000 OA
BRANCH  24  26
ATOM     26  C   UNL     1     -67.210 -42.456 -71.060  0.00  0.00    +0.000 C 
ATOM     27  C   UNL     1     -68.083 -42.674 -72.269  0.00  0.00    +0.000 C 
ATOM     28  C   UNL     1     -66.593 -42.753 -72.407  0.00  0.00    +0.000 C 
ENDBRANCH  24  26
ENDBRANCH  13  24
TORSDOF 5
ENDMDL
MODEL 18
REMARK VINA RESULT:    -5.233     14.739     16.128
REMARK INTER + INTRA:          -7.661
REMARK INTER:                  -7.084
REMARK INTRA:                  -0.577
REMARK UNBOUND:                -0.899
REMARK  Name = 
REMARK  6 active torsions:
REMARK  status: ('A' for Active; 'I' for Inactive)
REMARK    1  A    between atoms: C_1  and  C_2
REMARK    2  A    between atoms: C_4  and  C_5
REMARK    3  A    between atoms: C_5  and  S_6
REMARK    4  A    between atoms: S_6  and  C_8
REMARK    5  A    between atoms: C_20  and  C_21
REMARK    6  A    between atoms: C_21  and  C_23
REMARK                            x       y       z     vdW  Elec       q    Type
REMARK                         _______ _______ _______ _____ _____    ______ ____
ROOT
ATOM      1  C   UNL     1     -57.514 -39.934 -61.966  0.00  0.00    +0.000 A 
ATOM      2  N   UNL     1     -57.789 -38.697 -61.352  0.00  0.00    +0.000 N 
ATOM      3  C   UNL     1     -57.418 -37.478 -61.984  0.00  0.00    +0.000 A 
ATOM      4  C   UNL     1     -57.986 -36.235 -61.646  0.00  0.00    +0.000 A 
ATOM      5 BR   UNL     1     -59.435 -36.119 -60.428  0.00  0.00    +0.000 Br
ATOM      6  C   UNL     1     -57.514 -35.043 -62.215  0.00  0.00    +0.000 A 
ATOM      7  C   UNL     1     -56.479 -35.088 -63.157  0.00  0.00    +0.000 A 
ATOM      8  C   UNL     1     -55.903 -36.309 -63.509  0.00  0.00    +0.000 A 
ATOM      9 CL   UNL     1     -54.685 -36.264 -64.732  0.00  0.00    +0.000 Cl
ATOM     10  C   UNL     1     -56.360 -37.490 -62.906  0.00  0.00    +0.000 A 
ATOM     11  C   UNL     1     -55.756 -38.814 -63.151  0.00  0.00    +0.000 A 
ATOM     12  O   UNL     1     -54.569 -38.940 -63.424  0.00  0.00    +0.000 OA
ATOM     13  C   UNL     1     -56.623 -40.026 -62.978  0.00  0.00    +0.000 A 
ATOM     14  H   UNL     1     -58.724 -38.674 -60.924  0.00  0.00    +0.000 HD
ENDROOT
BRANCH   1  15
ATOM     15  S   UNL     1     -58.756 -41.195 -61.578  0.00  0.00    +0.000 S 
ATOM     16  O   UNL     1     -60.057 -40.439 -61.562  0.00  0.00    +0.000 OA
BRANCH  15  17
ATOM     17  C   UNL     1     -58.474 -41.827 -59.898  0.00  0.00    +0.000 C 
BRANCH  17  21
ATOM     18  C   UNL     1     -54.243 -43.459 -57.521  0.00  0.00    +0.000 C 
ATOM     19  C   UNL     1     -55.365 -43.048 -58.386  0.00  0.00    +0.000 A 
ATOM     20  C   UNL     1     -56.633 -42.569 -58.161  0.00  0.00    +0.000 A 
ATOM     21  C   UNL     1     -57.141 -42.290 -59.450  0.00  0.00    +0.000 A 
ATOM     22  N   UNL     1     -56.253 -42.649 -60.394  0.00  0.00    +0.000 NA
ATOM     23  O   UNL     1     -55.144 -43.121 -59.723  0.00  0.00    +0.000 OA
ENDBRANCH  17  21
ENDBRANCH  15  17
ENDBRANCH   1  15
BRANCH  13  24
ATOM     24  C   UNL     1     -56.460 -41.038 -64.060  0.00  0.00    +0.000 C 
ATOM     25  O   UNL     1     -55.899 -42.097 -63.839  0.00  0.00    +0.000 OA
BRANCH  24  26
ATOM     26  C   UNL     1     -57.033 -40.756 -65.390  0.00  0.00    +0.000 C 
ATOM     27  C   UNL     1     -57.942 -41.769 -66.036  0.00  0.00    +0.000 C 
ATOM     28  C   UNL     1     -56.582 -41.517 -66.614  0.00  0.00    +0.000 C 
ENDBRANCH  24  26
ENDBRANCH  13  24
TORSDOF 5
ENDMDL
MODEL 19
REMARK VINA RESULT:    -5.215      5.367      8.309
REMARK INTER + INTRA:          -7.639
REMARK INTER:                  -7.173
REMARK INTRA:                  -0.466
REMARK UNBOUND:                -0.899
REMARK  Name = 
REMARK  6 active torsions:
REMARK  status: ('A' for Active; 'I' for Inactive)
REMARK    1  A    between atoms: C_1  and  C_2
REMARK    2  A    between atoms: C_4  and  C_5
REMARK    3  A    between atoms: C_5  and  S_6
REMARK    4  A    between atoms: S_6  and  C_8
REMARK    5  A    between atoms: C_20  and  C_21
REMARK    6  A    between atoms: C_21  and  C_23
REMARK                            x       y       z     vdW  Elec       q    Type
REMARK                         _______ _______ _______ _____ _____    ______ ____
ROOT
ATOM      1  C   UNL     1     -54.668 -41.798 -81.709  0.00  0.00    +0.000 A 
ATOM      2  N   UNL     1     -55.983 -41.294 -81.691  0.00  0.00    +0.000 N 
ATOM      3  C   UNL     1     -56.740 -41.203 -82.892  0.00  0.00    +0.000 A 
ATOM      4  C   UNL     1     -58.142 -41.090 -82.909  0.00  0.00    +0.000 A 
ATOM      5 BR   UNL     1     -59.155 -41.231 -81.311  0.00  0.00    +0.000 Br
ATOM      6  C   UNL     1     -58.840 -40.892 -84.109  0.00  0.00    +0.000 A 
ATOM      7  C   UNL     1     -58.135 -40.833 -85.317  0.00  0.00    +0.000 A 
ATOM      8  C   UNL     1     -56.745 -40.945 -85.326  0.00  0.00    +0.000 A 
ATOM      9 CL   UNL     1     -55.978 -40.932 -86.872  0.00  0.00    +0.000 Cl
ATOM     10  C   UNL     1     -56.056 -41.107 -84.114  0.00  0.00    +0.000 A 
ATOM     11  C   UNL     1     -54.584 -41.148 -84.016  0.00  0.00    +0.000 A 
ATOM     12  O   UNL     1     -53.868 -40.542 -84.803  0.00  0.00    +0.000 OA
ATOM     13  C   UNL     1     -53.977 -41.897 -82.866  0.00  0.00    +0.000 A 
ATOM     14  H   UNL     1     -56.523 -41.642 -80.887  0.00  0.00    +0.000 HD
ENDROOT
BRANCH   1  15
ATOM     15  S   UNL     1     -54.235 -42.669 -80.180  0.00  0.00    +0.000 S 
ATOM     16  O   UNL     1     -55.258 -43.769 -80.079  0.00  0.00    +0.000 OA
BRANCH  15  17
ATOM     17  C   UNL     1     -54.485 -41.563 -78.761  0.00  0.00    +0.000 C 
BRANCH  17  21
ATOM     18  C   UNL     1     -50.154 -40.757 -76.151  0.00  0.00    +0.000 C 
ATOM     19  C   UNL     1     -51.453 -40.789 -76.849  0.00  0.00    +0.000 A 
ATOM     20  C   UNL     1     -52.093 -41.698 -77.659  0.00  0.00    +0.000 A 
ATOM     21  C   UNL     1     -53.360 -41.124 -77.903  0.00  0.00    +0.000 A 
ATOM     22  N   UNL     1     -53.446 -39.910 -77.332  0.00  0.00    +0.000 NA
ATOM     23  O   UNL     1     -52.252 -39.707 -76.673  0.00  0.00    +0.000 OA
ENDBRANCH  17  21
ENDBRANCH  15  17
ENDBRANCH   1  15
BRANCH  13  24
ATOM     24  C   UNL     1     -52.818 -42.751 -83.253  0.00  0.00    +0.000 C 
ATOM     25  O   UNL     1     -52.987 -43.767 -83.905  0.00  0.00    +0.000 OA
BRANCH  24  26
ATOM     26  C   UNL     1     -51.459 -42.320 -82.873  0.00  0.00    +0.000 C 
ATOM     27  C   UNL     1     -50.664 -41.457 -83.819  0.00  0.00    +0.000 C 
ATOM     28  C   UNL     1     -50.239 -42.873 -83.572  0.00  0.00    +0.000 C 
ENDBRANCH  24  26
ENDBRANCH  13  24
TORSDOF 5
ENDMDL
MODEL 20
REMARK VINA RESULT:    -5.199     11.143     13.086
REMARK INTER + INTRA:          -7.618
REMARK INTER:                  -6.707
REMARK INTRA:                  -0.910
REMARK UNBOUND:                -0.899
REMARK  Name = 
REMARK  6 active torsions:
REMARK  status: ('A' for Active; 'I' for Inactive)
REMARK    1  A    between atoms: C_1  and  C_2
REMARK    2  A    between atoms: C_4  and  C_5
REMARK    3  A    between atoms: C_5  and  S_6
REMARK    4  A    between atoms: S_6  and  C_8
REMARK    5  A    between atoms: C_20  and  C_21
REMARK    6  A    between atoms: C_21  and  C_23
REMARK                            x       y       z     vdW  Elec       q    Type
REMARK                         _______ _______ _______ _____ _____    ______ ____
ROOT
ATOM      1  C   UNL     1     -65.834 -41.454 -70.278  0.00  0.00    +0.000 A 
ATOM      2  N   UNL     1     -64.533 -41.566 -70.807  0.00  0.00    +0.000 N 
ATOM      3  C   UNL     1     -63.413 -41.720 -69.946  0.00  0.00    +0.000 A 
ATOM      4  C   UNL     1     -62.171 -42.219 -70.382  0.00  0.00    +0.000 A 
ATOM      5 BR   UNL     1     -61.953 -42.900 -72.140  0.00  0.00    +0.000 Br
ATOM      6  C   UNL     1     -61.061 -42.252 -69.527  0.00  0.00    +0.000 A 
ATOM      7  C   UNL     1     -61.191 -41.807 -68.206  0.00  0.00    +0.000 A 
ATOM      8  C   UNL     1     -62.412 -41.310 -67.750  0.00  0.00    +0.000 A 
ATOM      9 CL   UNL     1     -62.488 -40.855 -66.086  0.00  0.00    +0.000 Cl
ATOM     10  C   UNL     1     -63.506 -41.250 -68.626  0.00  0.00    +0.000 A 
ATOM     11  C   UNL     1     -64.810 -40.662 -68.260  0.00  0.00    +0.000 A 
ATOM     12  O   UNL     1     -64.900 -39.751 -67.447  0.00  0.00    +0.000 OA
ATOM     13  C   UNL     1     -66.031 -41.160 -68.974  0.00  0.00    +0.000 A 
ATOM     14  H   UNL     1     -64.502 -42.170 -71.640  0.00  0.00    +0.000 HD
ENDROOT
BRANCH   1  15
ATOM     15  S   UNL     1     -67.093 -42.165 -71.370  0.00  0.00    +0.000 S 
ATOM     16  O   UNL     1     -67.311 -43.552 -70.829  0.00  0.00    +0.000 OA
BRANCH  15  17
ATOM     17  C   UNL     1     -66.415 -42.337 -73.047  0.00  0.00    +0.000 C 
BRANCH  17  21
ATOM     18  C   UNL     1     -68.997 -44.144 -77.082  0.00  0.00    +0.000 C 
ATOM     19  C   UNL     1     -68.190 -43.825 -75.890  0.00  0.00    +0.000 A 
ATOM     20  C   UNL     1     -67.843 -42.664 -75.240  0.00  0.00    +0.000 A 
ATOM     21  C   UNL     1     -67.123 -43.095 -74.104  0.00  0.00    +0.000 A 
ATOM     22  N   UNL     1     -66.986 -44.433 -74.112  0.00  0.00    +0.000 NA
ATOM     23  O   UNL     1     -67.656 -44.883 -75.230  0.00  0.00    +0.000 OA
ENDBRANCH  17  21
ENDBRANCH  15  17
ENDBRANCH   1  15
BRANCH  13  24
ATOM     24  C   UNL     1     -67.194 -41.403 -68.074  0.00  0.00    +0.000 C 
ATOM     25  O   UNL     1     -68.188 -40.701 -68.143  0.00  0.00    +0.000 OA
BRANCH  24  26
ATOM     26  C   UNL     1     -67.140 -42.536 -67.131  0.00  0.00    +0.000 C 
ATOM     27  C   UNL     1     -66.417 -43.798 -67.530  0.00  0.00    +0.000 C 
ATOM     28  C   UNL     1     -67.909 -43.809 -67.392  0.00  0.00    +0.000 C 
ENDBRANCH  24  26
ENDBRANCH  13  24
TORSDOF 5
ENDMDL
