REMARK VINA RESULT:    -5.533     18.688     19.916
REMARK INTER + INTRA:          -7.909
REMARK INTER:                  -6.968
REMARK INTRA:                  -0.942
REMARK UNBOUND:                -0.760
REMARK  Name = 
REMARK  8 active torsions:
REMARK  status: ('A' for Active; 'I' for Inactive)
REMARK    1  A    between atoms: C_1  and  C_2
REMARK    2  A    between atoms: C_4  and  C_5
REMARK    3  A    between atoms: C_5  and  S_6
REMARK    4  A    between atoms: S_6  and  C_8
REMARK    5  A    between atoms: C_20  and  C_21
REMARK    6  A    between atoms: C_21  and  C_23
REMARK    7  A    between atoms: C_23  and  C_24
REMARK    8  A    between atoms: C_23  and  C_25
REMARK                            x       y       z     vdW  Elec       q    Type
REMARK                         _______ _______ _______ _____ _____    ______ ____
ROOT
ATOM      1  C   UNL     1     -47.173 -25.382 -64.299  0.00  0.00    +0.000 A 
ATOM      2  N   UNL     1     -48.044 -24.595 -65.045  0.00  0.00    +0.000 N 
ATOM      3  C   UNL     1     -49.124 -23.917 -64.447  0.00  0.00    +0.000 A 
ATOM      4  C   UNL     1     -49.752 -22.817 -65.061  0.00  0.00    +0.000 A 
ATOM      5 BR   UNL     1     -49.068 -22.076 -66.668  0.00  0.00    +0.000 Br
ATOM      6  C   UNL     1     -50.871 -22.212 -64.482  0.00  0.00    +0.000 A 
ATOM      7  C   UNL     1     -51.377 -22.695 -63.279  0.00  0.00    +0.000 A 
ATOM      8  C   UNL     1     -50.760 -23.789 -62.645  0.00  0.00    +0.000 A 
ATOM      9 CL   UNL     1     -51.433 -24.252 -61.123  0.00  0.00    +0.000 Cl
ATOM     10  C   UNL     1     -49.635 -24.404 -63.232  0.00  0.00    +0.000 A 
ATOM     11  C   UNL     1     -48.934 -25.582 -62.660  0.00  0.00    +0.000 A 
ATOM     12  O   UNL     1     -49.527 -26.340 -61.899  0.00  0.00    +0.000 OA
ATOM     13  C   UNL     1     -47.482 -25.831 -63.059  0.00  0.00    +0.000 A 
ATOM     14  H   UNL     1     -47.599 -24.120 -65.842  0.00  0.00    +0.000 HD
ENDROOT
BRANCH   1  15
ATOM     15  S   UNL     1     -45.535 -25.524 -65.109  0.00  0.00    +0.000 S 
ATOM     16  O   UNL     1     -44.656 -24.602 -64.307  0.00  0.00    +0.000 OA
BRANCH  15  17
ATOM     17  C   UNL     1     -45.813 -24.776 -66.750  0.00  0.00    +0.000 C 
BRANCH  17  21
ATOM     18  C   UNL     1     -44.132 -26.807 -71.205  0.00  0.00    +0.000 C 
ATOM     19  C   UNL     1     -44.523 -26.390 -69.841  0.00  0.00    +0.000 A 
ATOM     20  C   UNL     1     -45.114 -25.273 -69.295  0.00  0.00    +0.000 A 
ATOM     21  C   UNL     1     -45.226 -25.556 -67.903  0.00  0.00    +0.000 A 
ATOM     22  N   UNL     1     -44.708 -26.768 -67.642  0.00  0.00    +0.000 NA
ATOM     23  O   UNL     1     -44.277 -27.284 -68.849  0.00  0.00    +0.000 OA
ENDBRANCH  17  21
ENDBRANCH  15  17
ENDBRANCH   1  15
BRANCH  13  24
ATOM     24  C   UNL     1     -46.598 -26.493 -62.026  0.00  0.00    +0.000 C 
ATOM     25  O   UNL     1     -46.242 -27.661 -62.174  0.00  0.00    +0.000 OA
BRANCH  24  26
ATOM     26  C   UNL     1     -46.193 -25.740 -60.758  0.00  0.00    +0.000 C 
ATOM     27  C   UNL     1     -44.949 -26.346 -60.113  0.00  0.00    +0.000 C 
ATOM     28  C   UNL     1     -45.981 -24.247 -61.023  0.00  0.00    +0.000 C 
ENDBRANCH  24  26
ENDBRANCH  13  24
TORSDOF 5
