REMARK VINA RESULT:    -7.396      2.698      4.056
REMARK INTER + INTRA:         -10.193
REMARK INTER:                  -9.270
REMARK INTRA:                  -0.924
REMARK UNBOUND:                -0.635
REMARK  Name = 
REMARK  6 active torsions:
REMARK  status: ('A' for Active; 'I' for Inactive)
REMARK    1  A    between atoms: C_1  and  C_2
REMARK    2  A    between atoms: C_4  and  C_5
REMARK    3  A    between atoms: C_5  and  S_6
REMARK    4  A    between atoms: S_6  and  C_8
REMARK    5  A    between atoms: C_20  and  C_21
REMARK    6  A    between atoms: C_21  and  C_23
REMARK                            x       y       z     vdW  Elec       q    Type
REMARK                         _______ _______ _______ _____ _____    ______ ____
ROOT
ATOM      1  C   UNL     1     -55.466 -42.048 -63.242  0.00  0.00    +0.000 A 
ATOM      2  N   UNL     1     -54.682 -43.218 -63.229  0.00  0.00    +0.000 N 
ATOM      3  C   UNL     1     -53.288 -43.159 -63.504  0.00  0.00    +0.000 A 
ATOM      4  C   UNL     1     -52.389 -44.178 -63.136  0.00  0.00    +0.000 A 
ATOM      5 BR   UNL     1     -52.952 -45.644 -62.073  0.00  0.00    +0.000 Br
ATOM      6  C   UNL     1     -51.043 -44.131 -63.523  0.00  0.00    +0.000 A 
ATOM      7  C   UNL     1     -50.573 -43.041 -64.265  0.00  0.00    +0.000 A 
ATOM      8  C   UNL     1     -51.445 -42.018 -64.639  0.00  0.00    +0.000 A 
ATOM      9 CL   UNL     1     -50.753 -40.684 -65.489  0.00  0.00    +0.000 Cl
ATOM     10  C   UNL     1     -52.798 -42.095 -64.276  0.00  0.00    +0.000 A 
ATOM     11  C   UNL     1     -53.810 -41.107 -64.698  0.00  0.00    +0.000 A 
ATOM     12  O   UNL     1     -53.716 -40.501 -65.758  0.00  0.00    +0.000 OA
ATOM     13  C   UNL     1     -55.014 -40.915 -63.824  0.00  0.00    +0.000 A 
ATOM     14  H   UNL     1     -54.924 -43.840 -62.444  0.00  0.00    +0.000 HD
ENDROOT
BRANCH   1  15
ATOM     15  S   UNL     1     -56.838 -42.116 -62.061  0.00  0.00    +0.000 S 
ATOM     16  O   UNL     1     -56.618 -43.401 -61.312  0.00  0.00    +0.000 OA
BRANCH  15  17
ATOM     17  C   UNL     1     -58.408 -42.274 -62.963  0.00  0.00    +0.000 C 
BRANCH  17  21
ATOM     18  C   UNL     1     -58.887 -42.566 -68.053  0.00  0.00    +0.000 C 
ATOM     19  C   UNL     1     -58.623 -42.653 -66.605  0.00  0.00    +0.000 A 
ATOM     20  C   UNL     1     -58.944 -41.878 -65.515  0.00  0.00    +0.000 A 
ATOM     21  C   UNL     1     -58.450 -42.602 -64.407  0.00  0.00    +0.000 A 
ATOM     22  N   UNL     1     -57.809 -43.711 -64.816  0.00  0.00    +0.000 NA
ATOM     23  O   UNL     1     -57.921 -43.738 -66.190  0.00  0.00    +0.000 OA
ENDBRANCH  17  21
ENDBRANCH  15  17
ENDBRANCH   1  15
BRANCH  13  24
ATOM     24  C   UNL     1     -55.386 -39.486 -63.622  0.00  0.00    +0.000 C 
ATOM     25  O   UNL     1     -56.539 -39.120 -63.771  0.00  0.00    +0.000 OA
BRANCH  24  26
ATOM     26  C   UNL     1     -54.345 -38.534 -63.191  0.00  0.00    +0.000 C 
ATOM     27  C   UNL     1     -54.728 -37.112 -62.872  0.00  0.00    +0.000 C 
ATOM     28  C   UNL     1     -53.901 -37.402 -64.087  0.00  0.00    +0.000 C 
ENDBRANCH  24  26
ENDBRANCH  13  24
TORSDOF 5
