REMARK VINA RESULT:    -6.511      3.367      6.640
REMARK INTER + INTRA:          -9.070
REMARK INTER:                  -8.455
REMARK INTRA:                  -0.615
REMARK UNBOUND:                -1.035
REMARK  Name = 
REMARK  6 active torsions:
REMARK  status: ('A' for Active; 'I' for Inactive)
REMARK    1  A    between atoms: C_1  and  C_2
REMARK    2  A    between atoms: C_2  and  C_4
REMARK    3  A    between atoms: C_5  and  S_6
REMARK    4  A    between atoms: S_6  and  C_8
REMARK    5  A    between atoms: C_8  and  C_9
REMARK    6  A    between atoms: C_11  and  C_12
REMARK                            x       y       z     vdW  Elec       q    Type
REMARK                         _______ _______ _______ _____ _____    ______ ____
ROOT
ATOM      1  C   UNL     1     -55.973 -41.031 -63.956  0.00  0.00    +0.000 A 
ATOM      2  C   UNL     1     -54.833 -40.307 -64.049  0.00  0.00    +0.000 A 
ATOM      3  N   UNL     1     -54.776 -39.012 -63.579  0.00  0.00    +0.000 N 
ATOM      4  C   UNL     1     -55.840 -38.362 -62.944  0.00  0.00    +0.000 A 
ATOM      5  C   UNL     1     -55.721 -37.035 -62.495  0.00  0.00    +0.000 A 
ATOM      6 BR   UNL     1     -54.073 -36.102 -62.634  0.00  0.00    +0.000 Br
ATOM      7  C   UNL     1     -56.803 -36.363 -61.927  0.00  0.00    +0.000 A 
ATOM      8  C   UNL     1     -58.033 -37.007 -61.813  0.00  0.00    +0.000 A 
ATOM      9  C   UNL     1     -58.183 -38.321 -62.256  0.00  0.00    +0.000 A 
ATOM     10 CL   UNL     1     -59.772 -38.986 -62.076  0.00  0.00    +0.000 Cl
ATOM     11  C   UNL     1     -57.079 -38.993 -62.819  0.00  0.00    +0.000 A 
ATOM     12  C   UNL     1     -57.149 -40.396 -63.263  0.00  0.00    +0.000 A 
ATOM     13  O   UNL     1     -58.168 -41.026 -63.013  0.00  0.00    +0.000 OA
ATOM     14  H   UNL     1     -53.852 -38.613 -63.482  0.00  0.00    +0.000 HD
ENDROOT
BRANCH   1  16
ATOM     15  C   UNL     1     -55.880 -43.521 -63.340  0.00  0.00    +0.000 C 
ATOM     16  C   UNL     1     -56.152 -42.451 -64.391  0.00  0.00    +0.000 C 
ATOM     17  O   UNL     1     -56.484 -42.731 -65.512  0.00  0.00    +0.000 OA
ENDBRANCH   1  16
BRANCH   2  18
ATOM     18  S   UNL     1     -53.304 -40.920 -64.873  0.00  0.00    +0.000 S 
ATOM     19  O   UNL     1     -52.476 -39.677 -65.053  0.00  0.00    +0.000 OA
BRANCH  18  20
ATOM     20  C   UNL     1     -52.457 -41.902 -63.546  0.00  0.00    +0.000 C 
BRANCH  20  21
ATOM     21  C   UNL     1     -51.381 -42.778 -64.089  0.00  0.00    +0.000 A 
ATOM     22  C   UNL     1     -51.197 -44.172 -63.925  0.00  0.00    +0.000 A 
ATOM     23  C   UNL     1     -50.021 -44.437 -64.579  0.00  0.00    +0.000 A 
ATOM     24  C   UNL     1     -49.214 -45.649 -64.782  0.00  0.00    +0.000 C 
ATOM     25  O   UNL     1     -49.541 -43.292 -65.130  0.00  0.00    +0.000 OA
ATOM     26  N   UNL     1     -50.404 -42.251 -64.847  0.00  0.00    +0.000 NA
ENDBRANCH  20  21
ENDBRANCH  18  20
ENDBRANCH   2  18
TORSDOF 4
