REMARK VINA RESULT:    -6.563      3.070      5.521
REMARK INTER + INTRA:          -9.380
REMARK INTER:                  -8.334
REMARK INTRA:                  -1.046
REMARK UNBOUND:                -0.899
REMARK  Name = 
REMARK  6 active torsions:
REMARK  status: ('A' for Active; 'I' for Inactive)
REMARK    1  A    between atoms: C_1  and  C_2
REMARK    2  A    between atoms: C_4  and  C_5
REMARK    3  A    between atoms: C_5  and  S_6
REMARK    4  A    between atoms: S_6  and  C_8
REMARK    5  A    between atoms: C_20  and  C_21
REMARK    6  A    between atoms: C_21  and  C_23
REMARK                            x       y       z     vdW  Elec       q    Type
REMARK                         _______ _______ _______ _____ _____    ______ ____
ROOT
ATOM      1  C   UNL     1     -56.287 -41.782 -77.408  0.00  0.00    +0.000 A 
ATOM      2  N   UNL     1     -55.364 -40.729 -77.262  0.00  0.00    +0.000 N 
ATOM      3  C   UNL     1     -54.030 -40.989 -76.842  0.00  0.00    +0.000 A 
ATOM      4  C   UNL     1     -52.971 -40.085 -77.044  0.00  0.00    +0.000 A 
ATOM      5 BR   UNL     1     -53.213 -38.506 -78.068  0.00  0.00    +0.000 Br
ATOM      6  C   UNL     1     -51.696 -40.332 -76.517  0.00  0.00    +0.000 A 
ATOM      7  C   UNL     1     -51.460 -41.510 -75.799  0.00  0.00    +0.000 A 
ATOM      8  C   UNL     1     -52.494 -42.422 -75.587  0.00  0.00    +0.000 A 
ATOM      9 CL   UNL     1     -52.082 -43.876 -74.752  0.00  0.00    +0.000 Cl
ATOM     10  C   UNL     1     -53.774 -42.146 -76.089  0.00  0.00    +0.000 A 
ATOM     11  C   UNL     1     -54.947 -43.007 -75.843  0.00  0.00    +0.000 A 
ATOM     12  O   UNL     1     -55.056 -43.671 -74.819  0.00  0.00    +0.000 OA
ATOM     13  C   UNL     1     -56.056 -42.992 -76.852  0.00  0.00    +0.000 A 
ATOM     14  H   UNL     1     -55.430 -40.044 -78.027  0.00  0.00    +0.000 HD
ENDROOT
BRANCH   1  15
ATOM     15  S   UNL     1     -57.494 -41.473 -78.725  0.00  0.00    +0.000 S 
ATOM     16  O   UNL     1     -58.558 -42.512 -78.501  0.00  0.00    +0.000 OA
BRANCH  15  17
ATOM     17  C   UNL     1     -56.731 -41.814 -80.338  0.00  0.00    +0.000 C 
BRANCH  17  21
ATOM     18  C   UNL     1     -51.655 -42.368 -80.716  0.00  0.00    +0.000 C 
ATOM     19  C   UNL     1     -53.093 -42.043 -80.740  0.00  0.00    +0.000 A 
ATOM     20  C   UNL     1     -54.224 -42.625 -80.218  0.00  0.00    +0.000 A 
ATOM     21  C   UNL     1     -55.267 -41.730 -80.545  0.00  0.00    +0.000 A 
ATOM     22  N   UNL     1     -54.797 -40.707 -81.282  0.00  0.00    +0.000 NA
ATOM     23  O   UNL     1     -53.437 -40.908 -81.399  0.00  0.00    +0.000 OA
ENDBRANCH  17  21
ENDBRANCH  15  17
ENDBRANCH   1  15
BRANCH  13  24
ATOM     24  C   UNL     1     -56.583 -44.346 -77.184  0.00  0.00    +0.000 C 
ATOM     25  O   UNL     1     -57.684 -44.695 -76.793  0.00  0.00    +0.000 OA
BRANCH  24  26
ATOM     26  C   UNL     1     -55.771 -45.238 -78.034  0.00  0.00    +0.000 C 
ATOM     27  C   UNL     1     -56.203 -46.667 -78.233  0.00  0.00    +0.000 C 
ATOM     28  C   UNL     1     -54.969 -46.370 -77.438  0.00  0.00    +0.000 C 
ENDBRANCH  24  26
ENDBRANCH  13  24
TORSDOF 5
