REMARK VINA RESULT:    -6.556      3.249      6.024
REMARK INTER + INTRA:          -9.366
REMARK INTER:                  -8.056
REMARK INTRA:                  -1.310
REMARK UNBOUND:                -0.894
REMARK  Name = 
REMARK  8 active torsions:
REMARK  status: ('A' for Active; 'I' for Inactive)
REMARK    1  A    between atoms: C_1  and  C_2
REMARK    2  A    between atoms: C_4  and  C_5
REMARK    3  A    between atoms: C_5  and  S_6
REMARK    4  A    between atoms: S_6  and  C_8
REMARK    5  A    between atoms: C_20  and  C_21
REMARK    6  A    between atoms: C_21  and  C_23
REMARK    7  A    between atoms: C_23  and  C_24
REMARK    8  A    between atoms: C_23  and  C_25
REMARK                            x       y       z     vdW  Elec       q    Type
REMARK                         _______ _______ _______ _____ _____    ______ ____
ROOT
ATOM      1  C   UNL     1     -56.064 -42.562 -77.274  0.00  0.00    +0.000 A 
ATOM      2  N   UNL     1     -57.324 -42.955 -76.830  0.00  0.00    +0.000 N 
ATOM      3  C   UNL     1     -57.821 -42.562 -75.569  0.00  0.00    +0.000 A 
ATOM      4  C   UNL     1     -59.194 -42.607 -75.259  0.00  0.00    +0.000 A 
ATOM      5 CL   UNL     1     -60.361 -42.996 -76.473  0.00  0.00    +0.000 Cl
ATOM      6  C   UNL     1     -59.652 -42.313 -73.975  0.00  0.00    +0.000 A 
ATOM      7  C   UNL     1     -58.736 -41.966 -72.979  0.00  0.00    +0.000 A 
ATOM      8  C   UNL     1     -57.367 -41.900 -73.271  0.00  0.00    +0.000 A 
ATOM      9 CL   UNL     1     -56.342 -41.394 -71.979  0.00  0.00    +0.000 Cl
ATOM     10  C   UNL     1     -56.912 -42.210 -74.562  0.00  0.00    +0.000 A 
ATOM     11  C   UNL     1     -55.483 -42.252 -74.964  0.00  0.00    +0.000 A 
ATOM     12  O   UNL     1     -54.631 -42.506 -74.120  0.00  0.00    +0.000 OA
ATOM     13  C   UNL     1     -55.114 -42.068 -76.431  0.00  0.00    +0.000 A 
ATOM     14  H   UNL     1     -58.025 -43.014 -77.581  0.00  0.00    +0.000 HD
ENDROOT
BRANCH   1  15
ATOM     15  S   UNL     1     -55.976 -42.569 -79.111  0.00  0.00    +0.000 S 
ATOM     16  O   UNL     1     -57.419 -42.566 -79.536  0.00  0.00    +0.000 OA
BRANCH  15  17
ATOM     17  C   UNL     1     -55.295 -44.236 -79.480  0.00  0.00    +0.000 C 
BRANCH  17  21
ATOM     18  C   UNL     1     -55.107 -47.599 -75.557  0.00  0.00    +0.000 C 
ATOM     19  C   UNL     1     -55.365 -46.678 -76.684  0.00  0.00    +0.000 A 
ATOM     20  C   UNL     1     -54.634 -45.719 -77.347  0.00  0.00    +0.000 A 
ATOM     21  C   UNL     1     -55.495 -45.245 -78.377  0.00  0.00    +0.000 A 
ATOM     22  N   UNL     1     -56.683 -45.868 -78.303  0.00  0.00    +0.000 NA
ATOM     23  O   UNL     1     -56.595 -46.762 -77.254  0.00  0.00    +0.000 OA
ENDBRANCH  17  21
ENDBRANCH  15  17
ENDBRANCH   1  15
BRANCH  13  24
ATOM     24  C   UNL     1     -53.794 -41.365 -76.670  0.00  0.00    +0.000 C 
ATOM     25  O   UNL     1     -53.763 -40.132 -76.773  0.00  0.00    +0.000 OA
BRANCH  24  26
ATOM     26  C   UNL     1     -52.509 -42.126 -76.940  0.00  0.00    +0.000 C 
ATOM     27  C   UNL     1     -52.043 -41.856 -78.359  0.00  0.00    +0.000 C 
ATOM     28  C   UNL     1     -51.449 -41.834 -75.885  0.00  0.00    +0.000 C 
ENDBRANCH  24  26
ENDBRANCH  13  24
TORSDOF 5
