REMARK VINA RESULT:    -6.237     13.040     15.290
REMARK INTER + INTRA:          -9.017
REMARK INTER:                  -8.520
REMARK INTRA:                  -0.497
REMARK UNBOUND:                -0.957
REMARK  Name = 
REMARK  6 active torsions:
REMARK  status: ('A' for Active; 'I' for Inactive)
REMARK    1  A    between atoms: C_1  and  C_2
REMARK    2  A    between atoms: C_4  and  C_5
REMARK    3  A    between atoms: C_5  and  S_6
REMARK    4  A    between atoms: S_6  and  C_8
REMARK    5  A    between atoms: C_20  and  C_21
REMARK    6  A    between atoms: C_21  and  C_23
REMARK                            x       y       z     vdW  Elec       q    Type
REMARK                         _______ _______ _______ _____ _____    ______ ____
ROOT
ATOM      1  C   UNL     1     -53.440 -42.453 -78.370  0.00  0.00    +0.000 A 
ATOM      2  N   UNL     1     -54.622 -43.206 -78.511  0.00  0.00    +0.000 N 
ATOM      3  C   UNL     1     -55.620 -43.181 -77.499  0.00  0.00    +0.000 A 
ATOM      4  C   UNL     1     -56.953 -43.572 -77.725  0.00  0.00    +0.000 A 
ATOM      5 BR   UNL     1     -57.566 -43.996 -79.470  0.00  0.00    +0.000 Br
ATOM      6  C   UNL     1     -57.878 -43.638 -76.674  0.00  0.00    +0.000 A 
ATOM      7  C   UNL     1     -57.482 -43.283 -75.379  0.00  0.00    +0.000 A 
ATOM      8  C   UNL     1     -56.166 -42.891 -75.131  0.00  0.00    +0.000 A 
ATOM      9 CL   UNL     1     -55.796 -42.406 -73.515  0.00  0.00    +0.000 Cl
ATOM     10  C   UNL     1     -55.241 -42.864 -76.185  0.00  0.00    +0.000 A 
ATOM     11  C   UNL     1     -53.811 -42.546 -76.003  0.00  0.00    +0.000 A 
ATOM     12  O   UNL     1     -53.220 -42.805 -74.962  0.00  0.00    +0.000 OA
ATOM     13  C   UNL     1     -53.067 -41.962 -77.167  0.00  0.00    +0.000 A 
ATOM     14  H   UNL     1     -55.000 -43.161 -79.467  0.00  0.00    +0.000 HD
ENDROOT
BRANCH   1  15
ATOM     15  S   UNL     1     -52.791 -41.871 -79.959  0.00  0.00    +0.000 S 
ATOM     16  O   UNL     1     -53.131 -40.406 -79.983  0.00  0.00    +0.000 OA
BRANCH  15  17
ATOM     17  C   UNL     1     -53.706 -42.664 -81.314  0.00  0.00    +0.000 C 
BRANCH  17  21
ATOM     18  C   UNL     1     -57.064 -39.733 -83.835  0.00  0.00    +0.000 C 
ATOM     19  C   UNL     1     -55.977 -40.563 -83.284  0.00  0.00    +0.000 A 
ATOM     20  C   UNL     1     -55.724 -41.138 -82.061  0.00  0.00    +0.000 A 
ATOM     21  C   UNL     1     -54.540 -41.883 -82.257  0.00  0.00    +0.000 A 
ATOM     22  N   UNL     1     -54.073 -41.707 -83.506  0.00  0.00    +0.000 NA
ATOM     23  O   UNL     1     -54.976 -40.882 -84.144  0.00  0.00    +0.000 OA
ENDBRANCH  17  21
ENDBRANCH  15  17
ENDBRANCH   1  15
BRANCH  13  24
ATOM     24  C   UNL     1     -52.175 -40.826 -76.799  0.00  0.00    +0.000 C 
ATOM     25  O   UNL     1     -52.635 -39.714 -76.608  0.00  0.00    +0.000 OA
BRANCH  24  26
ATOM     26  C   UNL     1     -50.733 -41.082 -76.625  0.00  0.00    +0.000 C 
ATOM     27  C   UNL     1     -50.204 -41.441 -75.260  0.00  0.00    +0.000 C 
ATOM     28  C   UNL     1     -49.853 -40.117 -75.867  0.00  0.00    +0.000 C 
ENDBRANCH  24  26
ENDBRANCH  13  24
TORSDOF 5
