REMARK VINA RESULT:    -6.212     14.888     15.911
REMARK INTER + INTRA:          -8.424
REMARK INTER:                  -7.724
REMARK INTRA:                  -0.700
REMARK UNBOUND:                -0.760
REMARK  Name = 
REMARK  6 active torsions:
REMARK  status: ('A' for Active; 'I' for Inactive)
REMARK    1  A    between atoms: C_1  and  C_2
REMARK    2  A    between atoms: C_2  and  C_4
REMARK    3  A    between atoms: C_5  and  S_6
REMARK    4  A    between atoms: S_6  and  C_8
REMARK    5  A    between atoms: C_8  and  C_9
REMARK    6  A    between atoms: C_11  and  C_12
REMARK                            x       y       z     vdW  Elec       q    Type
REMARK                         _______ _______ _______ _____ _____    ______ ____
ROOT
ATOM      1  C   UNL     1     -53.578 -42.642 -80.241  0.00  0.00    +0.000 A 
ATOM      2  C   UNL     1     -53.730 -42.037 -79.037  0.00  0.00    +0.000 A 
ATOM      3  N   UNL     1     -54.489 -42.569 -78.016  0.00  0.00    +0.000 N 
ATOM      4  C   UNL     1     -55.245 -43.743 -78.153  0.00  0.00    +0.000 A 
ATOM      5  C   UNL     1     -55.948 -44.279 -77.058  0.00  0.00    +0.000 A 
ATOM      6 BR   UNL     1     -55.937 -43.410 -75.368  0.00  0.00    +0.000 Br
ATOM      7  C   UNL     1     -56.659 -45.472 -77.175  0.00  0.00    +0.000 A 
ATOM      8  C   UNL     1     -56.681 -46.142 -78.395  0.00  0.00    +0.000 A 
ATOM      9  C   UNL     1     -55.969 -45.640 -79.492  0.00  0.00    +0.000 A 
ATOM     10 CL   UNL     1     -56.098 -46.580 -80.939  0.00  0.00    +0.000 Cl
ATOM     11  C   UNL     1     -55.221 -44.455 -79.365  0.00  0.00    +0.000 A 
ATOM     12  C   UNL     1     -54.396 -43.887 -80.464  0.00  0.00    +0.000 A 
ATOM     13  O   UNL     1     -54.406 -44.406 -81.573  0.00  0.00    +0.000 OA
ATOM     14  H   UNL     1     -54.810 -41.910 -77.306  0.00  0.00    +0.000 HD
ENDROOT
BRANCH   1  16
ATOM     15  C   UNL     1     -53.289 -41.218 -82.387  0.00  0.00    +0.000 C 
ATOM     16  C   UNL     1     -52.693 -42.142 -81.349  0.00  0.00    +0.000 C 
ATOM     17  O   UNL     1     -51.515 -42.492 -81.451  0.00  0.00    +0.000 OA
ENDBRANCH   1  16
BRANCH   2  18
ATOM     18  S   UNL     1     -53.039 -40.378 -78.722  0.00  0.00    +0.000 S 
ATOM     19  O   UNL     1     -54.144 -39.452 -79.151  0.00  0.00    +0.000 OA
BRANCH  18  20
ATOM     20  C   UNL     1     -53.076 -40.393 -76.893  0.00  0.00    +0.000 C 
BRANCH  20  21
ATOM     21  C   UNL     1     -51.727 -40.151 -76.309  0.00  0.00    +0.000 A 
ATOM     22  C   UNL     1     -51.094 -38.919 -76.005  0.00  0.00    +0.000 A 
ATOM     23  C   UNL     1     -49.911 -39.276 -75.404  0.00  0.00    +0.000 A 
ATOM     24  C   UNL     1     -48.780 -38.529 -74.824  0.00  0.00    +0.000 C 
ATOM     25  O   UNL     1     -49.832 -40.633 -75.354  0.00  0.00    +0.000 OA
ATOM     26  N   UNL     1     -50.970 -41.185 -75.915  0.00  0.00    +0.000 NA
ENDBRANCH  20  21
ENDBRANCH  18  20
ENDBRANCH   2  18
TORSDOF 4
