REMARK VINA RESULT:    -6.095      1.972      2.410
REMARK INTER + INTRA:          -8.377
REMARK INTER:                  -7.544
REMARK INTRA:                  -0.832
REMARK UNBOUND:                -0.856
REMARK  Name = 
REMARK  6 active torsions:
REMARK  status: ('A' for Active; 'I' for Inactive)
REMARK    1  A    between atoms: C_1  and  C_2
REMARK    2  A    between atoms: C_2  and  C_4
REMARK    3  A    between atoms: C_5  and  S_6
REMARK    4  A    between atoms: S_6  and  C_8
REMARK    5  A    between atoms: C_8  and  C_9
REMARK    6  A    between atoms: C_11  and  C_12
REMARK                            x       y       z     vdW  Elec       q    Type
REMARK                         _______ _______ _______ _____ _____    ______ ____
ROOT
ATOM      1  C   UNL     1     -57.870 -40.014 -62.361  0.00  0.00    +0.000 A 
ATOM      2  C   UNL     1     -57.015 -40.943 -62.845  0.00  0.00    +0.000 A 
ATOM      3  N   UNL     1     -55.813 -40.614 -63.439  0.00  0.00    +0.000 N 
ATOM      4  C   UNL     1     -55.418 -39.289 -63.690  0.00  0.00    +0.000 A 
ATOM      5  C   UNL     1     -54.169 -39.003 -64.265  0.00  0.00    +0.000 A 
ATOM      6 BR   UNL     1     -52.996 -40.403 -64.794  0.00  0.00    +0.000 Br
ATOM      7  C   UNL     1     -53.749 -37.686 -64.459  0.00  0.00    +0.000 A 
ATOM      8  C   UNL     1     -54.579 -36.637 -64.082  0.00  0.00    +0.000 A 
ATOM      9  C   UNL     1     -55.822 -36.891 -63.499  0.00  0.00    +0.000 A 
ATOM     10 CL   UNL     1     -56.753 -35.484 -63.114  0.00  0.00    +0.000 Cl
ATOM     11  C   UNL     1     -56.230 -38.222 -63.272  0.00  0.00    +0.000 A 
ATOM     12  C   UNL     1     -57.492 -38.571 -62.579  0.00  0.00    +0.000 A 
ATOM     13  O   UNL     1     -58.233 -37.680 -62.188  0.00  0.00    +0.000 OA
ATOM     14  H   UNL     1     -55.333 -41.342 -63.964  0.00  0.00    +0.000 HD
ENDROOT
BRANCH   1  16
ATOM     15  C   UNL     1     -60.440 -40.395 -62.388  0.00  0.00    +0.000 C 
ATOM     16  C   UNL     1     -59.146 -40.309 -61.617  0.00  0.00    +0.000 C 
ATOM     17  O   UNL     1     -59.158 -40.446 -60.401  0.00  0.00    +0.000 OA
ENDBRANCH   1  16
BRANCH   2  18
ATOM     18  S   UNL     1     -57.451 -42.723 -62.854  0.00  0.00    +0.000 S 
ATOM     19  O   UNL     1     -58.241 -42.895 -64.123  0.00  0.00    +0.000 OA
BRANCH  18  20
ATOM     20  C   UNL     1     -55.805 -43.449 -63.188  0.00  0.00    +0.000 C 
BRANCH  20  21
ATOM     21  C   UNL     1     -55.059 -43.753 -61.931  0.00  0.00    +0.000 A 
ATOM     22  C   UNL     1     -55.340 -43.337 -60.604  0.00  0.00    +0.000 A 
ATOM     23  C   UNL     1     -54.386 -43.961 -59.832  0.00  0.00    +0.000 A 
ATOM     24  C   UNL     1     -54.074 -43.988 -58.389  0.00  0.00    +0.000 C 
ATOM     25  O   UNL     1     -53.587 -44.709 -60.640  0.00  0.00    +0.000 OA
ATOM     26  N   UNL     1     -54.013 -44.589 -61.954  0.00  0.00    +0.000 NA
ENDBRANCH  20  21
ENDBRANCH  18  20
ENDBRANCH   2  18
TORSDOF 4
