=
 OpenBabel09162516353D

 28 31  0  0  1  0  0  0  0  0999 V2000
  -55.4590  -42.0310  -63.2080 C   0  0  2  0  0  3  0  0  0  0  0  0
  -54.6800  -43.2040  -63.2080 N   0  0  0  0  0  0  0  0  0  0  0  0
  -53.2890  -43.1490  -63.4980 C   0  0  0  0  0  0  0  0  0  0  0  0
  -52.3900  -44.1720  -63.1440 C   0  0  0  0  0  0  0  0  0  0  0  0
  -52.9470  -45.6420  -62.0820 Br  0  0  0  0  0  0  0  0  0  0  0  0
  -51.0470  -44.1290  -63.5460 C   0  0  0  0  0  3  0  0  0  0  0  0
  -50.5810  -43.0370  -64.2870 C   0  0  0  0  0  3  0  0  0  0  0  0
  -51.4530  -42.0100  -64.6480 C   0  0  0  0  0  0  0  0  0  0  0  0
  -50.7650  -40.6750  -65.5000 Cl  0  0  0  0  0  0  0  0  0  0  0  0
  -52.8030  -42.0830  -64.2710 C   0  0  0  0  0  0  0  0  0  0  0  0
  -53.8150  -41.0890  -64.6780 C   0  0  0  0  0  0  0  0  0  0  0  0
  -53.7310  -40.4790  -65.7360 O   0  0  0  0  0  0  0  0  0  0  0  0
  -55.0090  -40.8980  -63.7900 C   0  0  2  0  0  3  0  0  0  0  0  0
  -54.9160  -43.8280  -62.4250 H   0  0  0  0  0  0  0  0  0  0  0  0
  -56.8200  -42.0990  -62.0130 S   0  0  2  0  0  0  0  0  0  0  0  0
  -56.5290  -43.3250  -61.1910 O   0  0  0  0  0  0  0  0  0  0  0  0
  -58.3840  -42.3910  -62.8910 C   0  0  0  0  0  2  0  0  0  0  0  0
  -58.8810  -42.5860  -67.9830 C   0  0  0  0  0  1  0  0  0  0  0  0
  -58.6060  -42.6960  -66.5380 C   0  0  0  0  0  0  0  0  0  0  0  0
  -58.9470  -41.9570  -65.4300 C   0  0  0  0  0  3  0  0  0  0  0  0
  -58.4240  -42.6890  -64.3410 C   0  0  0  0  0  0  0  0  0  0  0  0
  -57.7490  -43.7660  -64.7770 N   0  0  0  0  0  0  0  0  0  0  0  0
  -57.8680  -43.7670  -66.1520 O   0  0  0  0  0  0  0  0  0  0  0  0
  -55.3750  -39.4680  -63.5780 C   0  0  0  0  0  0  0  0  0  0  0  0
  -56.5370  -39.1080  -63.6530 O   0  0  0  0  0  0  0  0  0  0  0  0
  -54.3120  -38.5070  -63.2280 C   0  0  0  0  0  3  0  0  0  0  0  0
  -54.6790  -37.0830  -62.9000 C   0  0  0  0  0  2  0  0  0  0  0  0
  -53.9330  -37.3840  -64.1630 C   0  0  0  0  0  2  0  0  0  0  0  0
  1  2  1  0  0  0  0
  1 15  1  1  0  0  0
  2 14  1  0  0  0  0
  3  2  1  0  0  0  0
  3  4  1  0  0  0  0
  4  5  1  0  0  0  0
  6  4  2  0  0  0  0
  7  6  1  0  0  0  0
  8  7  2  0  0  0  0
  8 10  1  0  0  0  0
  9  8  1  0  0  0  0
 10  3  2  0  0  0  0
 11 10  1  0  0  0  0
 11 13  1  0  0  0  0
 12 11  2  0  0  0  0
 13 24  1  1  0  0  0
 13  1  1  0  0  0  0
 15 16  2  1  0  0  0
 17 15  1  0  0  0  0
 18 19  1  0  0  0  0
 19 23  1  0  0  0  0
 19 20  2  0  0  0  0
 20 21  1  0  0  0  0
 21 17  1  0  0  0  0
 22 21  2  0  0  0  0
 23 22  1  0  0  0  0
 24 26  1  0  0  0  0
 25 24  2  0  0  0  0
 26 27  1  0  0  0  0
 28 26  1  0  0  0  0
 28 27  1  0  0  0  0
M  END
>  <MODEL>
1

>  <REMARK>
 VINA RESULT:    -7.261      0.000      0.000
 INTER + INTRA:         -10.253
 INTER:                  -9.383
 INTRA:                  -0.869
 UNBOUND:                -0.869
  Name = 
  6 active torsions:
  status: ('A' for Active; 'I' for Inactive)
    1  A    between atoms: C_1  and  C_2
    2  A    between atoms: C_4  and  C_5
    3  A    between atoms: C_5  and  S_6
    4  A    between atoms: S_6  and  C_8
    5  A    between atoms: C_20  and  C_21
    6  A    between atoms: C_21  and  C_23
                            x       y       z     vdW  Elec       q    Type
                         _______ _______ _______ _____ _____    ______ ____

>  <TORSDO>
F 5

$$$$
