REMARK VINA RESULT:    -5.512     14.940     17.323
REMARK INTER + INTRA:          -7.883
REMARK INTER:                  -7.070
REMARK INTRA:                  -0.813
REMARK UNBOUND:                -1.082
REMARK  Name = 
REMARK  6 active torsions:
REMARK  status: ('A' for Active; 'I' for Inactive)
REMARK    1  A    between atoms: C_1  and  C_2
REMARK    2  A    between atoms: C_2  and  C_4
REMARK    3  A    between atoms: C_5  and  S_6
REMARK    4  A    between atoms: S_6  and  C_8
REMARK    5  A    between atoms: C_8  and  C_9
REMARK    6  A    between atoms: C_11  and  C_12
REMARK                            x       y       z     vdW  Elec       q    Type
REMARK                         _______ _______ _______ _____ _____    ______ ____
ROOT
ATOM      1  C   UNL     1     -68.868 -50.846 -55.394  0.00  0.00    +0.000 A 
ATOM      2  C   UNL     1     -68.036 -49.790 -55.259  0.00  0.00    +0.000 A 
ATOM      3  N   UNL     1     -66.865 -49.831 -54.527  0.00  0.00    +0.000 N 
ATOM      4  C   UNL     1     -66.504 -50.929 -53.732  0.00  0.00    +0.000 A 
ATOM      5  C   UNL     1     -65.322 -50.906 -52.967  0.00  0.00    +0.000 A 
ATOM      6 BR   UNL     1     -64.223 -49.357 -52.914  0.00  0.00    +0.000 Br
ATOM      7  C   UNL     1     -64.929 -52.012 -52.218  0.00  0.00    +0.000 A 
ATOM      8  C   UNL     1     -65.710 -53.164 -52.235  0.00  0.00    +0.000 A 
ATOM      9  C   UNL     1     -66.878 -53.222 -53.006  0.00  0.00    +0.000 A 
ATOM     10 CL   UNL     1     -67.744 -54.715 -52.916  0.00  0.00    +0.000 Cl
ATOM     11  C   UNL     1     -67.270 -52.107 -53.774  0.00  0.00    +0.000 A 
ATOM     12  C   UNL     1     -68.496 -52.087 -54.622  0.00  0.00    +0.000 A 
ATOM     13  O   UNL     1     -69.228 -53.066 -54.659  0.00  0.00    +0.000 OA
ATOM     14  H   UNL     1     -66.521 -48.925 -54.201  0.00  0.00    +0.000 HD
ENDROOT
BRANCH   1  16
ATOM     15  C   UNL     1     -71.440 -50.467 -55.556  0.00  0.00    +0.000 C 
ATOM     16  C   UNL     1     -70.133 -50.842 -56.214  0.00  0.00    +0.000 C 
ATOM     17  O   UNL     1     -70.131 -51.153 -57.407  0.00  0.00    +0.000 OA
ENDBRANCH   1  16
BRANCH   2  18
ATOM     18  S   UNL     1     -68.479 -48.145 -55.907  0.00  0.00    +0.000 S 
ATOM     19  O   UNL     1     -69.351 -47.566 -54.824  0.00  0.00    +0.000 OA
BRANCH  18  20
ATOM     20  C   UNL     1     -66.857 -47.312 -55.745  0.00  0.00    +0.000 C 
BRANCH  20  21
ATOM     21  C   UNL     1     -66.103 -47.284 -57.034  0.00  0.00    +0.000 A 
ATOM     22  C   UNL     1     -66.456 -47.791 -58.312  0.00  0.00    +0.000 A 
ATOM     23  C   UNL     1     -65.386 -47.482 -59.116  0.00  0.00    +0.000 A 
ATOM     24  C   UNL     1     -65.040 -47.750 -60.523  0.00  0.00    +0.000 C 
ATOM     25  O   UNL     1     -64.470 -46.791 -58.388  0.00  0.00    +0.000 OA
ATOM     26  N   UNL     1     -64.917 -46.657 -57.086  0.00  0.00    +0.000 NA
ENDBRANCH  20  21
ENDBRANCH  18  20
ENDBRANCH   2  18
TORSDOF 4
