REMARK VINA RESULT:    -5.678     17.726     19.645
REMARK INTER + INTRA:          -8.097
REMARK INTER:                  -7.192
REMARK INTRA:                  -0.905
REMARK UNBOUND:                -0.760
REMARK  Name = 
REMARK  8 active torsions:
REMARK  status: ('A' for Active; 'I' for Inactive)
REMARK    1  A    between atoms: C_1  and  C_2
REMARK    2  A    between atoms: C_4  and  C_5
REMARK    3  A    between atoms: C_5  and  S_6
REMARK    4  A    between atoms: S_6  and  C_8
REMARK    5  A    between atoms: C_20  and  C_21
REMARK    6  A    between atoms: C_21  and  C_23
REMARK    7  A    between atoms: C_23  and  C_24
REMARK    8  A    between atoms: C_23  and  C_25
REMARK                            x       y       z     vdW  Elec       q    Type
REMARK                         _______ _______ _______ _____ _____    ______ ____
ROOT
ATOM      1  C   UNL     1     -47.780 -25.370 -62.547  0.00  0.00    +0.000 A 
ATOM      2  N   UNL     1     -47.704 -25.182 -63.924  0.00  0.00    +0.000 N 
ATOM      3  C   UNL     1     -48.441 -24.173 -64.574  0.00  0.00    +0.000 A 
ATOM      4  C   UNL     1     -48.088 -23.688 -65.847  0.00  0.00    +0.000 A 
ATOM      5 BR   UNL     1     -46.491 -24.257 -66.699  0.00  0.00    +0.000 Br
ATOM      6  C   UNL     1     -48.881 -22.742 -66.503  0.00  0.00    +0.000 A 
ATOM      7  C   UNL     1     -50.037 -22.263 -65.893  0.00  0.00    +0.000 A 
ATOM      8  C   UNL     1     -50.404 -22.728 -64.617  0.00  0.00    +0.000 A 
ATOM      9 CL   UNL     1     -51.817 -22.009 -63.932  0.00  0.00    +0.000 Cl
ATOM     10  C   UNL     1     -49.607 -23.688 -63.959  0.00  0.00    +0.000 A 
ATOM     11  C   UNL     1     -49.925 -24.266 -62.627  0.00  0.00    +0.000 A 
ATOM     12  O   UNL     1     -51.084 -24.273 -62.221  0.00  0.00    +0.000 OA
ATOM     13  C   UNL     1     -48.789 -24.861 -61.801  0.00  0.00    +0.000 A 
ATOM     14  H   UNL     1     -46.780 -25.394 -64.324  0.00  0.00    +0.000 HD
ENDROOT
BRANCH   1  15
ATOM     15  S   UNL     1     -46.268 -26.174 -61.895  0.00  0.00    +0.000 S 
ATOM     16  O   UNL     1     -45.549 -25.061 -61.181  0.00  0.00    +0.000 OA
BRANCH  15  17
ATOM     17  C   UNL     1     -45.331 -26.592 -63.404  0.00  0.00    +0.000 C 
BRANCH  17  21
ATOM     18  C   UNL     1     -44.945 -31.754 -63.338  0.00  0.00    +0.000 C 
ATOM     19  C   UNL     1     -44.936 -30.287 -63.526  0.00  0.00    +0.000 A 
ATOM     20  C   UNL     1     -45.582 -29.225 -62.935  0.00  0.00    +0.000 A 
ATOM     21  C   UNL     1     -45.073 -28.069 -63.594  0.00  0.00    +0.000 A 
ATOM     22  N   UNL     1     -44.190 -28.435 -64.539  0.00  0.00    +0.000 NA
ATOM     23  O   UNL     1     -44.106 -29.813 -64.490  0.00  0.00    +0.000 OA
ENDBRANCH  17  21
ENDBRANCH  15  17
ENDBRANCH   1  15
BRANCH  13  24
ATOM     24  C   UNL     1     -48.923 -24.770 -60.297  0.00  0.00    +0.000 C 
ATOM     25  O   UNL     1     -49.098 -25.787 -59.628  0.00  0.00    +0.000 OA
BRANCH  24  26
ATOM     26  C   UNL     1     -48.908 -23.408 -59.602  0.00  0.00    +0.000 C 
ATOM     27  C   UNL     1     -49.966 -23.320 -58.506  0.00  0.00    +0.000 C 
ATOM     28  C   UNL     1     -47.526 -23.071 -59.034  0.00  0.00    +0.000 C 
ENDBRANCH  24  26
ENDBRANCH  13  24
TORSDOF 5
