REMARK VINA RESULT:    -5.240     18.862     21.058
REMARK INTER + INTRA:          -7.146
REMARK INTER:                  -6.483
REMARK INTRA:                  -0.662
REMARK UNBOUND:                -0.681
REMARK  Name = 
REMARK  6 active torsions:
REMARK  status: ('A' for Active; 'I' for Inactive)
REMARK    1  A    between atoms: C_1  and  C_2
REMARK    2  A    between atoms: C_2  and  C_4
REMARK    3  A    between atoms: C_5  and  S_6
REMARK    4  A    between atoms: S_6  and  C_8
REMARK    5  A    between atoms: C_8  and  C_9
REMARK    6  A    between atoms: C_11  and  C_12
REMARK                            x       y       z     vdW  Elec       q    Type
REMARK                         _______ _______ _______ _____ _____    ______ ____
ROOT
ATOM      1  C   UNL     1     -66.898 -52.305 -52.765  0.00  0.00    +0.000 A 
ATOM      2  C   UNL     1     -68.032 -52.238 -53.496  0.00  0.00    +0.000 A 
ATOM      3  N   UNL     1     -68.238 -51.310 -54.498  0.00  0.00    +0.000 N 
ATOM      4  C   UNL     1     -67.341 -50.261 -54.761  0.00  0.00    +0.000 A 
ATOM      5  C   UNL     1     -67.600 -49.329 -55.782  0.00  0.00    +0.000 A 
ATOM      6 BR   UNL     1     -69.202 -49.416 -56.802  0.00  0.00    +0.000 Br
ATOM      7  C   UNL     1     -66.690 -48.318 -56.082  0.00  0.00    +0.000 A 
ATOM      8  C   UNL     1     -65.504 -48.228 -55.362  0.00  0.00    +0.000 A 
ATOM      9  C   UNL     1     -65.209 -49.156 -54.355  0.00  0.00    +0.000 A 
ATOM     10 CL   UNL     1     -63.701 -48.908 -53.544  0.00  0.00    +0.000 Cl
ATOM     11  C   UNL     1     -66.119 -50.194 -54.067  0.00  0.00    +0.000 A 
ATOM     12  C   UNL     1     -65.875 -51.232 -53.028  0.00  0.00    +0.000 A 
ATOM     13  O   UNL     1     -64.854 -51.188 -52.349  0.00  0.00    +0.000 OA
ATOM     14  H   UNL     1     -69.213 -51.122 -54.730  0.00  0.00    +0.000 HD
ENDROOT
BRANCH   1  16
ATOM     15  C   UNL     1     -67.078 -53.069 -50.283  0.00  0.00    +0.000 C 
ATOM     16  C   UNL     1     -66.624 -53.337 -51.703  0.00  0.00    +0.000 C 
ATOM     17  O   UNL     1     -66.030 -54.386 -51.955  0.00  0.00    +0.000 OA
ENDBRANCH   1  16
BRANCH   2  18
ATOM     18  S   UNL     1     -69.484 -53.270 -53.095  0.00  0.00    +0.000 S 
ATOM     19  O   UNL     1     -70.274 -52.406 -52.149  0.00  0.00    +0.000 OA
BRANCH  18  20
ATOM     20  C   UNL     1     -70.363 -53.189 -54.697  0.00  0.00    +0.000 C 
BRANCH  20  21
ATOM     21  C   UNL     1     -71.352 -54.299 -54.828  0.00  0.00    +0.000 A 
ATOM     22  C   UNL     1     -71.291 -55.464 -55.637  0.00  0.00    +0.000 A 
ATOM     23  C   UNL     1     -72.441 -56.153 -55.339  0.00  0.00    +0.000 A 
ATOM     24  C   UNL     1     -73.041 -57.419 -55.802  0.00  0.00    +0.000 C 
ATOM     25  O   UNL     1     -73.143 -55.461 -54.402  0.00  0.00    +0.000 OA
ATOM     26  N   UNL     1     -72.460 -54.303 -54.072  0.00  0.00    +0.000 NA
ENDBRANCH  20  21
ENDBRANCH  18  20
ENDBRANCH   2  18
TORSDOF 4
