REMARK VINA RESULT:    -4.985      4.000      6.055
REMARK INTER + INTRA:          -6.795
REMARK INTER:                  -6.114
REMARK INTRA:                  -0.681
REMARK UNBOUND:                -0.644
REMARK  Name = 
REMARK  6 active torsions:
REMARK  status: ('A' for Active; 'I' for Inactive)
REMARK    1  A    between atoms: C_1  and  C_2
REMARK    2  A    between atoms: C_2  and  C_4
REMARK    3  A    between atoms: C_5  and  S_6
REMARK    4  A    between atoms: S_6  and  C_8
REMARK    5  A    between atoms: C_8  and  C_9
REMARK    6  A    between atoms: C_11  and  C_12
REMARK                            x       y       z     vdW  Elec       q    Type
REMARK                         _______ _______ _______ _____ _____    ______ ____
ROOT
ATOM      1  C   UNL     1     -58.568 -48.215 -78.428  0.00  0.00    +0.000 A 
ATOM      2  C   UNL     1     -58.011 -47.058 -78.005  0.00  0.00    +0.000 A 
ATOM      3  N   UNL     1     -58.732 -45.898 -77.801  0.00  0.00    +0.000 N 
ATOM      4  C   UNL     1     -60.084 -45.768 -78.159  0.00  0.00    +0.000 A 
ATOM      5  C   UNL     1     -60.772 -44.557 -77.956  0.00  0.00    +0.000 A 
ATOM      6 BR   UNL     1     -59.886 -43.034 -77.246  0.00  0.00    +0.000 Br
ATOM      7  C   UNL     1     -62.123 -44.435 -78.267  0.00  0.00    +0.000 A 
ATOM      8  C   UNL     1     -62.810 -45.536 -78.780  0.00  0.00    +0.000 A 
ATOM      9  C   UNL     1     -62.155 -46.757 -78.971  0.00  0.00    +0.000 A 
ATOM     10 CL   UNL     1     -63.136 -48.018 -79.635  0.00  0.00    +0.000 Cl
ATOM     11  C   UNL     1     -60.793 -46.885 -78.635  0.00  0.00    +0.000 A 
ATOM     12  C   UNL     1     -60.034 -48.159 -78.772  0.00  0.00    +0.000 A 
ATOM     13  O   UNL     1     -60.595 -49.158 -79.202  0.00  0.00    +0.000 OA
ATOM     14  H   UNL     1     -58.189 -45.032 -77.823  0.00  0.00    +0.000 HD
ENDROOT
BRANCH   1  16
ATOM     15  C   UNL     1     -57.708 -50.470 -77.446  0.00  0.00    +0.000 C 
ATOM     16  C   UNL     1     -57.816 -49.510 -78.610  0.00  0.00    +0.000 C 
ATOM     17  O   UNL     1     -57.276 -49.799 -79.678  0.00  0.00    +0.000 OA
ENDBRANCH   1  16
BRANCH   2  18
ATOM     18  S   UNL     1     -56.204 -46.879 -77.826  0.00  0.00    +0.000 S 
ATOM     19  O   UNL     1     -55.764 -46.422 -79.192  0.00  0.00    +0.000 OA
BRANCH  18  20
ATOM     20  C   UNL     1     -56.152 -45.393 -76.759  0.00  0.00    +0.000 C 
BRANCH  20  21
ATOM     21  C   UNL     1     -54.836 -45.273 -76.066  0.00  0.00    +0.000 A 
ATOM     22  C   UNL     1     -54.146 -44.103 -75.650  0.00  0.00    +0.000 A 
ATOM     23  C   UNL     1     -53.008 -44.571 -75.039  0.00  0.00    +0.000 A 
ATOM     24  C   UNL     1     -51.842 -43.937 -74.397  0.00  0.00    +0.000 C 
ATOM     25  O   UNL     1     -53.018 -45.930 -75.065  0.00  0.00    +0.000 OA
ATOM     26  N   UNL     1     -54.166 -46.374 -75.699  0.00  0.00    +0.000 NA
ENDBRANCH  20  21
ENDBRANCH  18  20
ENDBRANCH   2  18
TORSDOF 4
