=
 OpenBabel09162516343D

 26 28  0  0  0  0  0  0  0  0999 V2000
  -56.0330  -42.6510  -77.2750 C   0  0  0  0  0  0  0  0  0  0  0  0
  -55.1460  -43.3840  -76.5650 C   0  0  0  0  0  0  0  0  0  0  0  0
  -55.1890  -44.7620  -76.4890 N   0  0  0  0  0  0  0  0  0  0  0  0
  -56.2470  -45.5220  -77.0150 C   0  0  0  0  0  0  0  0  0  0  0  0
  -56.2610  -46.9240  -76.8900 C   0  0  0  0  0  0  0  0  0  0  0  0
  -54.8820  -47.8370  -75.9550 Br  0  0  0  0  0  0  0  0  0  0  0  0
  -57.2820  -47.6860  -77.4470 C   0  0  0  0  0  3  0  0  0  0  0  0
  -58.3060  -47.0510  -78.1510 C   0  0  0  0  0  3  0  0  0  0  0  0
  -58.3040  -45.6610  -78.3080 C   0  0  0  0  0  0  0  0  0  0  0  0
  -59.6520  -45.0220  -79.1850 Cl  0  0  0  0  0  0  0  0  0  0  0  0
  -57.2570  -44.8920  -77.7620 C   0  0  0  0  0  0  0  0  0  0  0  0
  -57.1620  -43.4150  -77.9170 C   0  0  0  0  0  0  0  0  0  0  0  0
  -58.0260  -42.8120  -78.5390 O   0  0  0  0  0  0  0  0  0  0  0  0
  -54.7140  -45.1730  -75.6820 H   0  0  0  0  0  0  0  0  0  0  0  0
  -55.2150  -40.5460  -78.5750 C   0  0  0  0  0  1  0  0  0  0  0  0
  -55.9820  -41.1500  -77.4190 C   0  0  0  0  0  0  0  0  0  0  0  0
  -56.5360  -40.4040  -76.6120 O   0  0  0  0  0  0  0  0  0  0  0  0
  -53.8970  -42.5940  -75.4940 S   0  0  1  0  0  0  0  0  0  0  0  0
  -53.3870  -43.7370  -74.6560 O   0  0  0  0  0  0  0  0  0  0  0  0
  -52.5970  -42.2660  -76.7390 C   0  0  0  0  0  2  0  0  0  0  0  0
  -51.5400  -41.3660  -76.1900 C   0  0  0  0  0  0  0  0  0  0  0  0
  -51.3920  -39.9620  -76.3440 C   0  0  0  0  0  3  0  0  0  0  0  0
  -50.2760  -39.6490  -75.6070 C   0  0  0  0  0  0  0  0  0  0  0  0
  -49.5330  -38.4060  -75.3280 C   0  0  0  0  0  1  0  0  0  0  0  0
  -49.7940  -40.7820  -75.0300 O   0  0  0  0  0  0  0  0  0  0  0  0
  -50.5880  -41.8590  -75.3860 N   0  0  0  0  0  0  0  0  0  0  0  0
  1  2  2  0  0  0  0
  2  3  1  0  0  0  0
  2 18  1  0  0  0  0
  3 14  1  0  0  0  0
  4  5  1  0  0  0  0
  4  3  1  0  0  0  0
  5  6  1  0  0  0  0
  7  5  2  0  0  0  0
  8  7  1  0  0  0  0
  9  8  2  0  0  0  0
  9 11  1  0  0  0  0
 10  9  1  0  0  0  0
 11  4  2  0  0  0  0
 12 11  1  0  0  0  0
 12  1  1  0  0  0  0
 13 12  2  0  0  0  0
 15 16  1  0  0  0  0
 16  1  1  0  0  0  0
 16 17  2  0  0  0  0
 18 19  2  1  0  0  0
 20 21  1  0  0  0  0
 20 18  1  0  0  0  0
 21 26  2  0  0  0  0
 22 21  1  0  0  0  0
 22 23  2  0  0  0  0
 23 24  1  0  0  0  0
 23 25  1  0  0  0  0
 26 25  1  0  0  0  0
M  END
>  <MODEL>
1

>  <REMARK>
 VINA RESULT:    -6.719      0.000      0.000
 INTER + INTRA:          -8.935
 INTER:                  -8.290
 INTRA:                  -0.644
 UNBOUND:                -0.644
  Name = 
  6 active torsions:
  status: ('A' for Active; 'I' for Inactive)
    1  A    between atoms: C_1  and  C_2
    2  A    between atoms: C_2  and  C_4
    3  A    between atoms: C_5  and  S_6
    4  A    between atoms: S_6  and  C_8
    5  A    between atoms: C_8  and  C_9
    6  A    between atoms: C_11  and  C_12
                            x       y       z     vdW  Elec       q    Type
                         _______ _______ _______ _____ _____    ______ ____

>  <TORSDO>
F 4

$$$$
