REMARK VINA RESULT:    -4.950     15.401     16.625
REMARK INTER + INTRA:          -6.911
REMARK INTER:                  -6.248
REMARK INTRA:                  -0.663
REMARK UNBOUND:                -0.804
REMARK  Name = 
REMARK  6 active torsions:
REMARK  status: ('A' for Active; 'I' for Inactive)
REMARK    1  A    between atoms: C_1  and  C_2
REMARK    2  A    between atoms: C_2  and  C_4
REMARK    3  A    between atoms: C_5  and  S_6
REMARK    4  A    between atoms: S_6  and  C_8
REMARK    5  A    between atoms: C_8  and  C_9
REMARK    6  A    between atoms: C_11  and  C_12
REMARK                            x       y       z     vdW  Elec       q    Type
REMARK                         _______ _______ _______ _____ _____    ______ ____
ROOT
ATOM      1  C   UNL     1     -56.209 -41.616 -77.311  0.00  0.00    +0.000 A 
ATOM      2  C   UNL     1     -56.736 -41.834 -78.536  0.00  0.00    +0.000 A 
ATOM      3  N   UNL     1     -55.966 -42.043 -79.662  0.00  0.00    +0.000 N 
ATOM      4  C   UNL     1     -54.564 -41.986 -79.656  0.00  0.00    +0.000 A 
ATOM      5  C   UNL     1     -53.824 -42.290 -80.813  0.00  0.00    +0.000 A 
ATOM      6 BR   UNL     1     -54.697 -42.722 -82.445  0.00  0.00    +0.000 Br
ATOM      7  C   UNL     1     -52.432 -42.298 -80.793  0.00  0.00    +0.000 A 
ATOM      8  C   UNL     1     -51.758 -42.000 -79.613  0.00  0.00    +0.000 A 
ATOM      9  C   UNL     1     -52.470 -41.714 -78.442  0.00  0.00    +0.000 A 
ATOM     10 CL   UNL     1     -51.499 -41.368 -77.054  0.00  0.00    +0.000 Cl
ATOM     11  C   UNL     1     -53.878 -41.733 -78.453  0.00  0.00    +0.000 A 
ATOM     12  C   UNL     1     -54.711 -41.475 -77.247  0.00  0.00    +0.000 A 
ATOM     13  O   UNL     1     -54.185 -41.108 -76.203  0.00  0.00    +0.000 OA
ATOM     14  H   UNL     1     -56.418 -41.862 -80.557  0.00  0.00    +0.000 HD
ENDROOT
BRANCH   1  16
ATOM     15  C   UNL     1     -57.292 -42.725 -75.236  0.00  0.00    +0.000 C 
ATOM     16  C   UNL     1     -57.001 -41.481 -76.043  0.00  0.00    +0.000 C 
ATOM     17  O   UNL     1     -57.445 -40.393 -75.668  0.00  0.00    +0.000 OA
ENDBRANCH   1  16
BRANCH   2  18
ATOM     18  S   UNL     1     -58.539 -41.736 -78.823  0.00  0.00    +0.000 S 
ATOM     19  O   UNL     1     -58.646 -41.500 -80.305  0.00  0.00    +0.000 OA
BRANCH  18  20
ATOM     20  C   UNL     1     -58.970 -43.494 -78.562  0.00  0.00    +0.000 C 
BRANCH  20  21
ATOM     21  C   UNL     1     -60.417 -43.674 -78.249  0.00  0.00    +0.000 A 
ATOM     22  C   UNL     1     -61.487 -43.993 -79.124  0.00  0.00    +0.000 A 
ATOM     23  C   UNL     1     -62.578 -44.130 -78.301  0.00  0.00    +0.000 A 
ATOM     24  C   UNL     1     -63.999 -44.464 -78.515  0.00  0.00    +0.000 C 
ATOM     25  O   UNL     1     -62.196 -43.905 -77.016  0.00  0.00    +0.000 OA
ATOM     26  N   UNL     1     -60.840 -43.626 -76.977  0.00  0.00    +0.000 NA
ENDBRANCH  20  21
ENDBRANCH  18  20
ENDBRANCH   2  18
TORSDOF 4
