REMARK VINA RESULT:    -7.497      0.000      0.000
REMARK INTER + INTRA:         -10.558
REMARK INTER:                  -9.688
REMARK INTRA:                  -0.870
REMARK UNBOUND:                -0.870
REMARK  Name = 
REMARK  8 active torsions:
REMARK  status: ('A' for Active; 'I' for Inactive)
REMARK    1  A    between atoms: C_1  and  C_2
REMARK    2  A    between atoms: C_4  and  C_5
REMARK    3  A    between atoms: C_5  and  S_6
REMARK    4  A    between atoms: S_6  and  C_8
REMARK    5  A    between atoms: C_20  and  C_21
REMARK    6  A    between atoms: C_21  and  C_23
REMARK    7  A    between atoms: C_23  and  C_24
REMARK    8  A    between atoms: C_23  and  C_25
REMARK                            x       y       z     vdW  Elec       q    Type
REMARK                         _______ _______ _______ _____ _____    ______ ____
ROOT
ATOM      1  C   UNL     1     -55.915 -42.601 -76.606  0.00  0.00    +0.000 A 
ATOM      2  N   UNL     1     -54.605 -42.985 -76.336  0.00  0.00    +0.000 N 
ATOM      3  C   UNL     1     -53.555 -42.047 -76.287  0.00  0.00    +0.000 A 
ATOM      4  C   UNL     1     -52.341 -42.314 -75.626  0.00  0.00    +0.000 A 
ATOM      5 BR   UNL     1     -52.110 -43.903 -74.616  0.00  0.00    +0.000 Br
ATOM      6  C   UNL     1     -51.287 -41.397 -75.660  0.00  0.00    +0.000 A 
ATOM      7  C   UNL     1     -51.432 -40.198 -76.350  0.00  0.00    +0.000 A 
ATOM      8  C   UNL     1     -52.639 -39.908 -77.011  0.00  0.00    +0.000 A 
ATOM      9 CL   UNL     1     -52.726 -38.360 -77.772  0.00  0.00    +0.000 Cl
ATOM     10  C   UNL     1     -53.701 -40.836 -76.984  0.00  0.00    +0.000 A 
ATOM     11  C   UNL     1     -55.000 -40.639 -77.676  0.00  0.00    +0.000 A 
ATOM     12  O   UNL     1     -55.075 -39.884 -78.641  0.00  0.00    +0.000 OA
ATOM     13  C   UNL     1     -56.218 -41.408 -77.172  0.00  0.00    +0.000 A 
ATOM     14  H   UNL     1     -54.529 -43.782 -75.689  0.00  0.00    +0.000 HD
ENDROOT
BRANCH   1  15
ATOM     15  S   UNL     1     -57.121 -43.792 -75.911  0.00  0.00    +0.000 S 
ATOM     16  O   UNL     1     -57.824 -44.341 -77.123  0.00  0.00    +0.000 OA
BRANCH  15  17
ATOM     17  C   UNL     1     -58.288 -42.724 -75.001  0.00  0.00    +0.000 C 
BRANCH  17  21
ATOM     18  C   UNL     1     -55.856 -41.106 -70.726  0.00  0.00    +0.000 C 
ATOM     19  C   UNL     1     -56.630 -41.377 -71.958  0.00  0.00    +0.000 A 
ATOM     20  C   UNL     1     -56.716 -42.427 -72.844  0.00  0.00    +0.000 A 
ATOM     21  C   UNL     1     -57.695 -42.028 -73.798  0.00  0.00    +0.000 A 
ATOM     22  N   UNL     1     -58.147 -40.797 -73.500  0.00  0.00    +0.000 NA
ATOM     23  O   UNL     1     -57.485 -40.399 -72.354  0.00  0.00    +0.000 OA
ENDBRANCH  17  21
ENDBRANCH  15  17
ENDBRANCH   1  15
BRANCH  13  24
ATOM     24  C   UNL     1     -57.562 -40.733 -77.333  0.00  0.00    +0.000 C 
ATOM     25  O   UNL     1     -57.852 -39.759 -76.640  0.00  0.00    +0.000 OA
BRANCH  24  26
ATOM     26  C   UNL     1     -58.597 -41.295 -78.308  0.00  0.00    +0.000 C 
ATOM     27  C   UNL     1     -59.718 -40.296 -78.582  0.00  0.00    +0.000 C 
ATOM     28  C   UNL     1     -57.957 -41.748 -79.623  0.00  0.00    +0.000 C 
ENDBRANCH  24  26
ENDBRANCH  13  24
TORSDOF 5
