REMARK VINA RESULT:    -5.307     21.049     23.939
REMARK INTER + INTRA:          -7.732
REMARK INTER:                  -6.530
REMARK INTRA:                  -1.201
REMARK UNBOUND:                -0.874
REMARK  Name = 
REMARK  8 active torsions:
REMARK  status: ('A' for Active; 'I' for Inactive)
REMARK    1  A    between atoms: C_1  and  C_2
REMARK    2  A    between atoms: C_4  and  C_5
REMARK    3  A    between atoms: C_5  and  S_6
REMARK    4  A    between atoms: S_6  and  C_8
REMARK    5  A    between atoms: C_20  and  C_21
REMARK    6  A    between atoms: C_21  and  C_23
REMARK    7  A    between atoms: C_23  and  C_24
REMARK    8  A    between atoms: C_23  and  C_25
REMARK                            x       y       z     vdW  Elec       q    Type
REMARK                         _______ _______ _______ _____ _____    ______ ____
ROOT
ATOM      1  C   UNL     1     -66.012 -47.512 -56.616  0.00  0.00    +0.000 A 
ATOM      2  N   UNL     1     -65.968 -48.123 -55.367  0.00  0.00    +0.000 N 
ATOM      3  C   UNL     1     -66.564 -49.378 -55.136  0.00  0.00    +0.000 A 
ATOM      4  C   UNL     1     -66.195 -50.195 -54.051  0.00  0.00    +0.000 A 
ATOM      5 BR   UNL     1     -64.747 -49.722 -52.922  0.00  0.00    +0.000 Br
ATOM      6  C   UNL     1     -66.858 -51.400 -53.801  0.00  0.00    +0.000 A 
ATOM      7  C   UNL     1     -67.896 -51.808 -54.634  0.00  0.00    +0.000 A 
ATOM      8  C   UNL     1     -68.275 -51.010 -55.728  0.00  0.00    +0.000 A 
ATOM      9 CL   UNL     1     -69.525 -51.653 -56.730  0.00  0.00    +0.000 Cl
ATOM     10  C   UNL     1     -67.611 -49.790 -55.977  0.00  0.00    +0.000 A 
ATOM     11  C   UNL     1     -67.958 -48.862 -57.083  0.00  0.00    +0.000 A 
ATOM     12  O   UNL     1     -69.084 -48.880 -57.571  0.00  0.00    +0.000 OA
ATOM     13  C   UNL     1     -66.895 -47.883 -57.574  0.00  0.00    +0.000 A 
ATOM     14  H   UNL     1     -65.107 -47.928 -54.837  0.00  0.00    +0.000 HD
ENDROOT
BRANCH   1  15
ATOM     15  S   UNL     1     -64.618 -46.344 -56.842  0.00  0.00    +0.000 S 
ATOM     16  O   UNL     1     -63.412 -47.136 -56.417  0.00  0.00    +0.000 OA
BRANCH  15  17
ATOM     17  C   UNL     1     -64.939 -45.060 -55.586  0.00  0.00    +0.000 C 
BRANCH  17  21
ATOM     18  C   UNL     1     -62.018 -45.530 -51.337  0.00  0.00    +0.000 C 
ATOM     19  C   UNL     1     -63.000 -45.495 -52.444  0.00  0.00    +0.000 A 
ATOM     20  C   UNL     1     -63.046 -44.906 -53.687  0.00  0.00    +0.000 A 
ATOM     21  C   UNL     1     -64.291 -45.317 -54.246  0.00  0.00    +0.000 A 
ATOM     22  N   UNL     1     -64.952 -46.089 -53.366  0.00  0.00    +0.000 NA
ATOM     23  O   UNL     1     -64.144 -46.200 -52.250  0.00  0.00    +0.000 OA
ENDBRANCH  17  21
ENDBRANCH  15  17
ENDBRANCH   1  15
BRANCH  13  24
ATOM     24  C   UNL     1     -66.946 -47.501 -59.036  0.00  0.00    +0.000 C 
ATOM     25  O   UNL     1     -66.294 -48.135 -59.865  0.00  0.00    +0.000 OA
BRANCH  24  26
ATOM     26  C   UNL     1     -67.754 -46.285 -59.489  0.00  0.00    +0.000 C 
ATOM     27  C   UNL     1     -66.857 -45.190 -60.062  0.00  0.00    +0.000 C 
ATOM     28  C   UNL     1     -68.841 -46.663 -60.499  0.00  0.00    +0.000 C 
ENDBRANCH  24  26
ENDBRANCH  13  24
TORSDOF 5
