REMARK VINA RESULT:    -5.898     13.292     15.266
REMARK INTER + INTRA:          -7.924
REMARK INTER:                  -7.080
REMARK INTRA:                  -0.844
REMARK UNBOUND:                -0.647
REMARK  Name = 
REMARK  6 active torsions:
REMARK  status: ('A' for Active; 'I' for Inactive)
REMARK    1  A    between atoms: C_1  and  C_2
REMARK    2  A    between atoms: C_2  and  C_4
REMARK    3  A    between atoms: C_5  and  S_6
REMARK    4  A    between atoms: S_6  and  C_8
REMARK    5  A    between atoms: C_8  and  C_9
REMARK    6  A    between atoms: C_11  and  C_12
REMARK                            x       y       z     vdW  Elec       q    Type
REMARK                         _______ _______ _______ _____ _____    ______ ____
ROOT
ATOM      1  C   UNL     1     -57.480 -39.281 -61.391  0.00  0.00    +0.000 A 
ATOM      2  C   UNL     1     -56.604 -40.255 -61.795  0.00  0.00    +0.000 A 
ATOM      3  N   UNL     1     -55.517 -39.956 -62.574  0.00  0.00    +0.000 N 
ATOM      4  C   UNL     1     -55.291 -38.705 -63.159  0.00  0.00    +0.000 A 
ATOM      5  C   UNL     1     -54.263 -38.536 -64.110  0.00  0.00    +0.000 A 
ATOM      6 BR   UNL     1     -53.180 -39.998 -64.666  0.00  0.00    +0.000 Br
ATOM      7  C   UNL     1     -54.016 -37.290 -64.676  0.00  0.00    +0.000 A 
ATOM      8  C   UNL     1     -54.808 -36.204 -64.309  0.00  0.00    +0.000 A 
ATOM      9  C   UNL     1     -55.846 -36.361 -63.383  0.00  0.00    +0.000 A 
ATOM     10 CL   UNL     1     -56.777 -34.941 -63.055  0.00  0.00    +0.000 Cl
ATOM     11  C   UNL     1     -56.082 -37.620 -62.802  0.00  0.00    +0.000 A 
ATOM     12  C   UNL     1     -57.104 -37.868 -61.767  0.00  0.00    +0.000 A 
ATOM     13  O   UNL     1     -57.614 -36.916 -61.187  0.00  0.00    +0.000 OA
ATOM     14  H   UNL     1     -54.923 -40.733 -62.867  0.00  0.00    +0.000 HD
ENDROOT
BRANCH   1  16
ATOM     15  C   UNL     1     -60.093 -39.347 -61.373  0.00  0.00    +0.000 C 
ATOM     16  C   UNL     1     -58.764 -39.465 -60.625  0.00  0.00    +0.000 C 
ATOM     17  O   UNL     1     -58.750 -39.707 -59.438  0.00  0.00    +0.000 OA
ENDBRANCH   1  16
BRANCH   2  18
ATOM     18  S   UNL     1     -56.853 -42.060 -61.521  0.00  0.00    +0.000 S 
ATOM     19  O   UNL     1     -58.296 -42.275 -61.926  0.00  0.00    +0.000 OA
BRANCH  18  20
ATOM     20  C   UNL     1     -55.865 -42.770 -62.910  0.00  0.00    +0.000 C 
BRANCH  20  21
ATOM     21  C   UNL     1     -56.517 -42.747 -64.255  0.00  0.00    +0.000 A 
ATOM     22  C   UNL     1     -57.447 -43.629 -64.858  0.00  0.00    +0.000 A 
ATOM     23  C   UNL     1     -57.728 -43.048 -66.075  0.00  0.00    +0.000 A 
ATOM     24  C   UNL     1     -58.612 -43.398 -67.195  0.00  0.00    +0.000 C 
ATOM     25  O   UNL     1     -57.014 -41.902 -66.203  0.00  0.00    +0.000 OA
ATOM     26  N   UNL     1     -56.262 -41.703 -65.063  0.00  0.00    +0.000 NA
ENDBRANCH  20  21
ENDBRANCH  18  20
ENDBRANCH   2  18
TORSDOF 4
