REMARK VINA RESULT:    -6.432     11.322     14.774
REMARK INTER + INTRA:          -8.996
REMARK INTER:                  -8.032
REMARK INTRA:                  -0.964
REMARK UNBOUND:                -0.684
REMARK  Name = 
REMARK  8 active torsions:
REMARK  status: ('A' for Active; 'I' for Inactive)
REMARK    1  A    between atoms: C_1  and  C_2
REMARK    2  A    between atoms: C_4  and  C_5
REMARK    3  A    between atoms: C_5  and  S_6
REMARK    4  A    between atoms: S_6  and  C_8
REMARK    5  A    between atoms: C_20  and  C_21
REMARK    6  A    between atoms: C_21  and  C_23
REMARK    7  A    between atoms: C_23  and  C_24
REMARK    8  A    between atoms: C_23  and  C_25
REMARK                            x       y       z     vdW  Elec       q    Type
REMARK                         _______ _______ _______ _____ _____    ______ ____
ROOT
ATOM      1  C   UNL     1     -57.191 -41.410 -78.173  0.00  0.00    +0.000 A 
ATOM      2  N   UNL     1     -56.706 -41.561 -79.469  0.00  0.00    +0.000 N 
ATOM      3  C   UNL     1     -55.348 -41.837 -79.722  0.00  0.00    +0.000 A 
ATOM      4  C   UNL     1     -54.911 -42.397 -80.937  0.00  0.00    +0.000 A 
ATOM      5 BR   UNL     1     -56.155 -42.968 -82.251  0.00  0.00    +0.000 Br
ATOM      6  C   UNL     1     -53.550 -42.588 -81.193  0.00  0.00    +0.000 A 
ATOM      7  C   UNL     1     -52.607 -42.226 -80.236  0.00  0.00    +0.000 A 
ATOM      8  C   UNL     1     -53.023 -41.671 -79.012  0.00  0.00    +0.000 A 
ATOM      9 CL   UNL     1     -51.767 -41.329 -77.877  0.00  0.00    +0.000 Cl
ATOM     10  C   UNL     1     -54.395 -41.472 -78.757  0.00  0.00    +0.000 A 
ATOM     11  C   UNL     1     -54.934 -40.865 -77.512  0.00  0.00    +0.000 A 
ATOM     12  O   UNL     1     -54.228 -40.124 -76.835  0.00  0.00    +0.000 OA
ATOM     13  C   UNL     1     -56.376 -41.168 -77.118  0.00  0.00    +0.000 A 
ATOM     14  H   UNL     1     -57.382 -41.984 -80.120  0.00  0.00    +0.000 HD
ENDROOT
BRANCH   1  15
ATOM     15  S   UNL     1     -58.981 -41.791 -78.076  0.00  0.00    +0.000 S 
ATOM     16  O   UNL     1     -59.021 -43.287 -77.919  0.00  0.00    +0.000 OA
BRANCH  15  17
ATOM     17  C   UNL     1     -59.590 -41.369 -79.744  0.00  0.00    +0.000 C 
BRANCH  17  21
ATOM     18  C   UNL     1     -62.006 -36.823 -79.192  0.00  0.00    +0.000 C 
ATOM     19  C   UNL     1     -61.321 -38.084 -79.553  0.00  0.00    +0.000 A 
ATOM     20  C   UNL     1     -60.709 -39.097 -78.850  0.00  0.00    +0.000 A 
ATOM     21  C   UNL     1     -60.284 -40.030 -79.839  0.00  0.00    +0.000 A 
ATOM     22  N   UNL     1     -60.611 -39.578 -81.062  0.00  0.00    +0.000 NA
ATOM     23  O   UNL     1     -61.258 -38.371 -80.878  0.00  0.00    +0.000 OA
ENDBRANCH  17  21
ENDBRANCH  15  17
ENDBRANCH   1  15
BRANCH  13  24
ATOM     24  C   UNL     1     -56.685 -41.196 -75.638  0.00  0.00    +0.000 C 
ATOM     25  O   UNL     1     -57.394 -40.325 -75.137  0.00  0.00    +0.000 OA
BRANCH  24  26
ATOM     26  C   UNL     1     -56.065 -42.268 -74.740  0.00  0.00    +0.000 C 
ATOM     27  C   UNL     1     -56.601 -42.189 -73.313  0.00  0.00    +0.000 C 
ATOM     28  C   UNL     1     -56.267 -43.676 -75.306  0.00  0.00    +0.000 C 
ENDBRANCH  24  26
ENDBRANCH  13  24
TORSDOF 5
