REMARK VINA RESULT:    -5.767     20.497     23.028
REMARK INTER + INTRA:          -8.326
REMARK INTER:                  -7.115
REMARK INTRA:                  -1.211
REMARK UNBOUND:                -0.874
REMARK  Name = 
REMARK  8 active torsions:
REMARK  status: ('A' for Active; 'I' for Inactive)
REMARK    1  A    between atoms: C_1  and  C_2
REMARK    2  A    between atoms: C_4  and  C_5
REMARK    3  A    between atoms: C_5  and  S_6
REMARK    4  A    between atoms: S_6  and  C_8
REMARK    5  A    between atoms: C_20  and  C_21
REMARK    6  A    between atoms: C_21  and  C_23
REMARK    7  A    between atoms: C_23  and  C_24
REMARK    8  A    between atoms: C_23  and  C_25
REMARK                            x       y       z     vdW  Elec       q    Type
REMARK                         _______ _______ _______ _____ _____    ______ ____
ROOT
ATOM      1  C   UNL     1     -47.919 -24.663 -61.866  0.00  0.00    +0.000 A 
ATOM      2  N   UNL     1     -47.740 -24.790 -63.240  0.00  0.00    +0.000 N 
ATOM      3  C   UNL     1     -48.476 -24.013 -64.156  0.00  0.00    +0.000 A 
ATOM      4  C   UNL     1     -48.046 -23.808 -65.480  0.00  0.00    +0.000 A 
ATOM      5 BR   UNL     1     -46.355 -24.438 -66.065  0.00  0.00    +0.000 Br
ATOM      6  C   UNL     1     -48.834 -23.098 -66.391  0.00  0.00    +0.000 A 
ATOM      7  C   UNL     1     -50.061 -22.578 -65.989  0.00  0.00    +0.000 A 
ATOM      8  C   UNL     1     -50.506 -22.765 -64.668  0.00  0.00    +0.000 A 
ATOM      9 CL   UNL     1     -52.008 -22.014 -64.268  0.00  0.00    +0.000 Cl
ATOM     10  C   UNL     1     -49.714 -23.487 -63.751  0.00  0.00    +0.000 A 
ATOM     11  C   UNL     1     -50.109 -23.767 -62.347  0.00  0.00    +0.000 A 
ATOM     12  O   UNL     1     -51.294 -23.767 -62.029  0.00  0.00    +0.000 OA
ATOM     13  C   UNL     1     -49.014 -24.073 -61.329  0.00  0.00    +0.000 A 
ATOM     14  H   UNL     1     -46.775 -25.019 -63.515  0.00  0.00    +0.000 HD
ENDROOT
BRANCH   1  15
ATOM     15  S   UNL     1     -46.424 -25.183 -60.942  0.00  0.00    +0.000 S 
ATOM     16  O   UNL     1     -45.358 -24.236 -61.422  0.00  0.00    +0.000 OA
BRANCH  15  17
ATOM     17  C   UNL     1     -46.070 -26.841 -61.617  0.00  0.00    +0.000 C 
BRANCH  17  21
ATOM     18  C   UNL     1     -49.774 -30.333 -60.672  0.00  0.00    +0.000 C 
ATOM     19  C   UNL     1     -48.809 -29.307 -61.125  0.00  0.00    +0.000 A 
ATOM     20  C   UNL     1     -47.759 -28.633 -60.544  0.00  0.00    +0.000 A 
ATOM     21  C   UNL     1     -47.238 -27.799 -61.575  0.00  0.00    +0.000 A 
ATOM     22  N   UNL     1     -47.960 -27.958 -62.698  0.00  0.00    +0.000 NA
ATOM     23  O   UNL     1     -48.932 -28.899 -62.414  0.00  0.00    +0.000 OA
ENDBRANCH  17  21
ENDBRANCH  15  17
ENDBRANCH   1  15
BRANCH  13  24
ATOM     24  C   UNL     1     -49.276 -23.649 -59.901  0.00  0.00    +0.000 C 
ATOM     25  O   UNL     1     -48.879 -22.558 -59.496  0.00  0.00    +0.000 OA
BRANCH  24  26
ATOM     26  C   UNL     1     -49.978 -24.600 -58.930  0.00  0.00    +0.000 C 
ATOM     27  C   UNL     1     -50.124 -26.002 -59.516  0.00  0.00    +0.000 C 
ATOM     28  C   UNL     1     -49.267 -24.662 -57.575  0.00  0.00    +0.000 C 
ENDBRANCH  24  26
ENDBRANCH  13  24
TORSDOF 5
