REMARK VINA RESULT:    -5.161      4.342      6.850
REMARK INTER + INTRA:          -7.470
REMARK INTER:                  -6.499
REMARK INTRA:                  -0.970
REMARK UNBOUND:                -0.800
REMARK  Name = 
REMARK  8 active torsions:
REMARK  status: ('A' for Active; 'I' for Inactive)
REMARK    1  A    between atoms: C_1  and  C_2
REMARK    2  A    between atoms: C_4  and  C_5
REMARK    3  A    between atoms: C_5  and  S_6
REMARK    4  A    between atoms: S_6  and  C_8
REMARK    5  A    between atoms: C_20  and  C_21
REMARK    6  A    between atoms: C_21  and  C_23
REMARK    7  A    between atoms: C_23  and  C_24
REMARK    8  A    between atoms: C_23  and  C_25
REMARK                            x       y       z     vdW  Elec       q    Type
REMARK                         _______ _______ _______ _____ _____    ______ ____
ROOT
ATOM      1  C   UNL     1     -56.195 -39.746 -62.796  0.00  0.00    +0.000 A 
ATOM      2  N   UNL     1     -56.957 -39.494 -61.659  0.00  0.00    +0.000 N 
ATOM      3  C   UNL     1     -57.697 -40.511 -61.025  0.00  0.00    +0.000 A 
ATOM      4  C   UNL     1     -58.122 -40.406 -59.688  0.00  0.00    +0.000 A 
ATOM      5 BR   UNL     1     -57.580 -38.947 -58.603  0.00  0.00    +0.000 Br
ATOM      6  C   UNL     1     -58.921 -41.395 -59.107  0.00  0.00    +0.000 A 
ATOM      7  C   UNL     1     -59.303 -42.506 -59.854  0.00  0.00    +0.000 A 
ATOM      8  C   UNL     1     -58.882 -42.634 -61.190  0.00  0.00    +0.000 A 
ATOM      9 CL   UNL     1     -59.358 -44.088 -61.991  0.00  0.00    +0.000 Cl
ATOM     10  C   UNL     1     -58.082 -41.633 -61.778  0.00  0.00    +0.000 A 
ATOM     11  C   UNL     1     -57.614 -41.658 -63.188  0.00  0.00    +0.000 A 
ATOM     12  O   UNL     1     -58.231 -42.306 -64.028  0.00  0.00    +0.000 OA
ATOM     13  C   UNL     1     -56.375 -40.849 -63.560  0.00  0.00    +0.000 A 
ATOM     14  H   UNL     1     -56.560 -38.773 -61.041  0.00  0.00    +0.000 HD
ENDROOT
BRANCH   1  15
ATOM     15  S   UNL     1     -54.828 -38.537 -62.969  0.00  0.00    +0.000 S 
ATOM     16  O   UNL     1     -54.649 -37.995 -61.577  0.00  0.00    +0.000 OA
BRANCH  15  17
ATOM     17  C   UNL     1     -55.555 -37.228 -64.011  0.00  0.00    +0.000 C 
BRANCH  17  21
ATOM     18  C   UNL     1     -56.393 -32.804 -61.456  0.00  0.00    +0.000 C 
ATOM     19  C   UNL     1     -56.356 -34.106 -62.158  0.00  0.00    +0.000 A 
ATOM     20  C   UNL     1     -55.411 -34.794 -62.884  0.00  0.00    +0.000 A 
ATOM     21  C   UNL     1     -56.043 -36.018 -63.249  0.00  0.00    +0.000 A 
ATOM     22  N   UNL     1     -57.302 -36.037 -62.780  0.00  0.00    +0.000 NA
ATOM     23  O   UNL     1     -57.490 -34.849 -62.099  0.00  0.00    +0.000 OA
ENDBRANCH  17  21
ENDBRANCH  15  17
ENDBRANCH   1  15
BRANCH  13  24
ATOM     24  C   UNL     1     -55.516 -41.397 -64.677  0.00  0.00    +0.000 C 
ATOM     25  O   UNL     1     -55.803 -41.164 -65.850  0.00  0.00    +0.000 OA
BRANCH  24  26
ATOM     26  C   UNL     1     -54.322 -42.300 -64.362  0.00  0.00    +0.000 C 
ATOM     27  C   UNL     1     -53.006 -41.526 -64.384  0.00  0.00    +0.000 C 
ATOM     28  C   UNL     1     -54.490 -43.024 -63.024  0.00  0.00    +0.000 C 
ENDBRANCH  24  26
ENDBRANCH  13  24
TORSDOF 5
