REMARK VINA RESULT:    -6.604      3.161      3.871
REMARK INTER + INTRA:          -8.792
REMARK INTER:                  -7.934
REMARK INTRA:                  -0.858
REMARK UNBOUND:                -0.644
REMARK  Name = 
REMARK  6 active torsions:
REMARK  status: ('A' for Active; 'I' for Inactive)
REMARK    1  A    between atoms: C_1  and  C_2
REMARK    2  A    between atoms: C_2  and  C_4
REMARK    3  A    between atoms: C_5  and  S_6
REMARK    4  A    between atoms: S_6  and  C_8
REMARK    5  A    between atoms: C_8  and  C_9
REMARK    6  A    between atoms: C_11  and  C_12
REMARK                            x       y       z     vdW  Elec       q    Type
REMARK                         _______ _______ _______ _____ _____    ______ ____
ROOT
ATOM      1  C   UNL     1     -56.499 -41.586 -77.349  0.00  0.00    +0.000 A 
ATOM      2  C   UNL     1     -55.171 -41.835 -77.351  0.00  0.00    +0.000 A 
ATOM      3  N   UNL     1     -54.416 -41.919 -78.504  0.00  0.00    +0.000 N 
ATOM      4  C   UNL     1     -54.983 -41.905 -79.790  0.00  0.00    +0.000 A 
ATOM      5  C   UNL     1     -54.176 -42.020 -80.937  0.00  0.00    +0.000 A 
ATOM      6 BR   UNL     1     -52.297 -42.257 -80.792  0.00  0.00    +0.000 Br
ATOM      7  C   UNL     1     -54.726 -41.962 -82.213  0.00  0.00    +0.000 A 
ATOM      8  C   UNL     1     -56.101 -41.777 -82.359  0.00  0.00    +0.000 A 
ATOM      9  C   UNL     1     -56.923 -41.639 -81.236  0.00  0.00    +0.000 A 
ATOM     10 CL   UNL     1     -58.607 -41.440 -81.580  0.00  0.00    +0.000 Cl
ATOM     11  C   UNL     1     -56.361 -41.675 -79.944  0.00  0.00    +0.000 A 
ATOM     12  C   UNL     1     -57.160 -41.498 -78.700  0.00  0.00    +0.000 A 
ATOM     13  O   UNL     1     -58.368 -41.317 -78.775  0.00  0.00    +0.000 OA
ATOM     14  H   UNL     1     -53.538 -42.437 -78.419  0.00  0.00    +0.000 HD
ENDROOT
BRANCH   1  16
ATOM     15  C   UNL     1     -58.081 -42.643 -75.569  0.00  0.00    +0.000 C 
ATOM     16  C   UNL     1     -57.340 -41.438 -76.106  0.00  0.00    +0.000 C 
ATOM     17  O   UNL     1     -57.452 -40.358 -75.525  0.00  0.00    +0.000 OA
ENDBRANCH   1  16
BRANCH   2  18
ATOM     18  S   UNL     1     -54.277 -42.256 -75.817  0.00  0.00    +0.000 S 
ATOM     19  O   UNL     1     -54.722 -43.667 -75.533  0.00  0.00    +0.000 OA
BRANCH  18  20
ATOM     20  C   UNL     1     -52.579 -42.391 -76.485  0.00  0.00    +0.000 C 
BRANCH  20  21
ATOM     21  C   UNL     1     -51.791 -41.155 -76.206  0.00  0.00    +0.000 A 
ATOM     22  C   UNL     1     -50.533 -41.021 -75.559  0.00  0.00    +0.000 A 
ATOM     23  C   UNL     1     -50.263 -39.675 -75.604  0.00  0.00    +0.000 A 
ATOM     24  C   UNL     1     -49.160 -38.824 -75.119  0.00  0.00    +0.000 C 
ATOM     25  O   UNL     1     -51.276 -39.040 -76.251  0.00  0.00    +0.000 OA
ATOM     26  N   UNL     1     -52.231 -39.965 -76.638  0.00  0.00    +0.000 NA
ENDBRANCH  20  21
ENDBRANCH  18  20
ENDBRANCH   2  18
TORSDOF 4
