REMARK VINA RESULT:    -6.350      3.023      5.155
REMARK INTER + INTRA:          -9.069
REMARK INTER:                  -8.179
REMARK INTRA:                  -0.890
REMARK UNBOUND:                -0.863
REMARK  Name = 
REMARK  6 active torsions:
REMARK  status: ('A' for Active; 'I' for Inactive)
REMARK    1  A    between atoms: C_1  and  C_2
REMARK    2  A    between atoms: C_4  and  C_5
REMARK    3  A    between atoms: C_5  and  S_6
REMARK    4  A    between atoms: S_6  and  C_8
REMARK    5  A    between atoms: C_20  and  C_21
REMARK    6  A    between atoms: C_21  and  C_23
REMARK                            x       y       z     vdW  Elec       q    Type
REMARK                         _______ _______ _______ _____ _____    ______ ____
ROOT
ATOM      1  C   UNL     1     -54.633 -42.480 -77.645  0.00  0.00    +0.000 A 
ATOM      2  N   UNL     1     -55.870 -42.763 -78.256  0.00  0.00    +0.000 N 
ATOM      3  C   UNL     1     -56.074 -42.488 -79.636  0.00  0.00    +0.000 A 
ATOM      4  C   UNL     1     -57.102 -43.082 -80.393  0.00  0.00    +0.000 A 
ATOM      5 BR   UNL     1     -58.195 -44.448 -79.658  0.00  0.00    +0.000 Br
ATOM      6  C   UNL     1     -57.337 -42.701 -81.721  0.00  0.00    +0.000 A 
ATOM      7  C   UNL     1     -56.521 -41.733 -82.319  0.00  0.00    +0.000 A 
ATOM      8  C   UNL     1     -55.495 -41.132 -81.589  0.00  0.00    +0.000 A 
ATOM      9 CL   UNL     1     -54.500 -40.005 -82.438  0.00  0.00    +0.000 Cl
ATOM     10  C   UNL     1     -55.293 -41.497 -80.249  0.00  0.00    +0.000 A 
ATOM     11  C   UNL     1     -54.291 -40.856 -79.375  0.00  0.00    +0.000 A 
ATOM     12  O   UNL     1     -53.959 -39.687 -79.524  0.00  0.00    +0.000 OA
ATOM     13  C   UNL     1     -53.737 -41.658 -78.235  0.00  0.00    +0.000 A 
ATOM     14  H   UNL     1     -56.257 -43.667 -77.951  0.00  0.00    +0.000 HD
ENDROOT
BRANCH   1  15
ATOM     15  S   UNL     1     -54.235 -43.639 -76.309  0.00  0.00    +0.000 S 
ATOM     16  O   UNL     1     -55.195 -44.779 -76.512  0.00  0.00    +0.000 OA
BRANCH  15  17
ATOM     17  C   UNL     1     -54.626 -42.876 -74.708  0.00  0.00    +0.000 C 
BRANCH  17  21
ATOM     18  C   UNL     1     -59.081 -41.513 -72.584  0.00  0.00    +0.000 C 
ATOM     19  C   UNL     1     -57.888 -41.851 -73.381  0.00  0.00    +0.000 A 
ATOM     20  C   UNL     1     -56.608 -42.257 -73.082  0.00  0.00    +0.000 A 
ATOM     21  C   UNL     1     -56.009 -42.496 -74.339  0.00  0.00    +0.000 A 
ATOM     22  N   UNL     1     -56.858 -42.184 -75.333  0.00  0.00    +0.000 NA
ATOM     23  O   UNL     1     -58.031 -41.782 -74.729  0.00  0.00    +0.000 OA
ENDBRANCH  17  21
ENDBRANCH  15  17
ENDBRANCH   1  15
BRANCH  13  24
ATOM     24  C   UNL     1     -52.261 -41.529 -78.073  0.00  0.00    +0.000 C 
ATOM     25  O   UNL     1     -51.505 -41.942 -78.935  0.00  0.00    +0.000 OA
BRANCH  24  26
ATOM     26  C   UNL     1     -51.734 -40.851 -76.874  0.00  0.00    +0.000 C 
ATOM     27  C   UNL     1     -50.247 -40.836 -76.624  0.00  0.00    +0.000 C 
ATOM     28  C   UNL     1     -51.143 -41.635 -75.727  0.00  0.00    +0.000 C 
ENDBRANCH  24  26
ENDBRANCH  13  24
TORSDOF 5
