REMARK VINA RESULT:    -6.164     14.481     15.529
REMARK INTER + INTRA:          -8.608
REMARK INTER:                  -7.862
REMARK INTRA:                  -0.747
REMARK UNBOUND:                -1.003
REMARK  Name = 
REMARK  6 active torsions:
REMARK  status: ('A' for Active; 'I' for Inactive)
REMARK    1  A    between atoms: C_1  and  C_2
REMARK    2  A    between atoms: C_2  and  C_4
REMARK    3  A    between atoms: C_5  and  S_6
REMARK    4  A    between atoms: S_6  and  C_8
REMARK    5  A    between atoms: C_8  and  C_9
REMARK    6  A    between atoms: C_11  and  C_12
REMARK                            x       y       z     vdW  Elec       q    Type
REMARK                         _______ _______ _______ _____ _____    ______ ____
ROOT
ATOM      1  C   UNL     1     -53.372 -41.436 -78.027  0.00  0.00    +0.000 A 
ATOM      2  C   UNL     1     -54.700 -41.265 -78.220  0.00  0.00    +0.000 A 
ATOM      3  N   UNL     1     -55.326 -41.508 -79.427  0.00  0.00    +0.000 N 
ATOM      4  C   UNL     1     -54.618 -41.791 -80.610  0.00  0.00    +0.000 A 
ATOM      5  C   UNL     1     -55.288 -41.954 -81.835  0.00  0.00    +0.000 A 
ATOM      6 BR   UNL     1     -57.170 -41.715 -81.957  0.00  0.00    +0.000 Br
ATOM      7  C   UNL     1     -54.595 -42.287 -82.998  0.00  0.00    +0.000 A 
ATOM      8  C   UNL     1     -53.219 -42.470 -82.946  0.00  0.00    +0.000 A 
ATOM      9  C   UNL     1     -52.527 -42.337 -81.733  0.00  0.00    +0.000 A 
ATOM     10 CL   UNL     1     -50.819 -42.585 -81.836  0.00  0.00    +0.000 Cl
ATOM     11  C   UNL     1     -53.230 -42.008 -80.556  0.00  0.00    +0.000 A 
ATOM     12  C   UNL     1     -52.569 -41.841 -79.238  0.00  0.00    +0.000 A 
ATOM     13  O   UNL     1     -51.363 -41.993 -79.138  0.00  0.00    +0.000 OA
ATOM     14  H   UNL     1     -56.218 -41.031 -79.563  0.00  0.00    +0.000 HD
ENDROOT
BRANCH   1  16
ATOM     15  C   UNL     1     -52.528 -42.340 -75.727  0.00  0.00    +0.000 C 
ATOM     16  C   UNL     1     -52.656 -41.203 -76.714  0.00  0.00    +0.000 C 
ATOM     17  O   UNL     1     -52.179 -40.104 -76.425  0.00  0.00    +0.000 OA
ENDBRANCH   1  16
BRANCH   2  18
ATOM     18  S   UNL     1     -55.760 -40.521 -76.935  0.00  0.00    +0.000 S 
ATOM     19  O   UNL     1     -56.978 -40.077 -77.701  0.00  0.00    +0.000 OA
BRANCH  18  20
ATOM     20  C   UNL     1     -56.255 -42.032 -76.032  0.00  0.00    +0.000 C 
BRANCH  20  21
ATOM     21  C   UNL     1     -56.542 -41.771 -74.587  0.00  0.00    +0.000 A 
ATOM     22  C   UNL     1     -55.935 -42.304 -73.420  0.00  0.00    +0.000 A 
ATOM     23  C   UNL     1     -56.591 -41.696 -72.376  0.00  0.00    +0.000 A 
ATOM     24  C   UNL     1     -56.522 -41.801 -70.907  0.00  0.00    +0.000 C 
ATOM     25  O   UNL     1     -57.504 -40.823 -72.878  0.00  0.00    +0.000 OA
ATOM     26  N   UNL     1     -57.472 -40.861 -74.260  0.00  0.00    +0.000 NA
ENDBRANCH  20  21
ENDBRANCH  18  20
ENDBRANCH   2  18
TORSDOF 4
