REMARK VINA RESULT:    -5.076     18.691     20.275
REMARK INTER + INTRA:          -7.359
REMARK INTER:                  -6.468
REMARK INTRA:                  -0.892
REMARK UNBOUND:                -0.800
REMARK  Name = 
REMARK  8 active torsions:
REMARK  status: ('A' for Active; 'I' for Inactive)
REMARK    1  A    between atoms: C_1  and  C_2
REMARK    2  A    between atoms: C_4  and  C_5
REMARK    3  A    between atoms: C_5  and  S_6
REMARK    4  A    between atoms: S_6  and  C_8
REMARK    5  A    between atoms: C_20  and  C_21
REMARK    6  A    between atoms: C_21  and  C_23
REMARK    7  A    between atoms: C_23  and  C_24
REMARK    8  A    between atoms: C_23  and  C_25
REMARK                            x       y       z     vdW  Elec       q    Type
REMARK                         _______ _______ _______ _____ _____    ______ ____
ROOT
ATOM      1  C   UNL     1     -45.183 -26.211 -67.308  0.00  0.00    +0.000 A 
ATOM      2  N   UNL     1     -45.059 -26.856 -66.082  0.00  0.00    +0.000 N 
ATOM      3  C   UNL     1     -44.112 -27.879 -65.876  0.00  0.00    +0.000 A 
ATOM      4  C   UNL     1     -43.677 -28.250 -64.590  0.00  0.00    +0.000 A 
ATOM      5 BR   UNL     1     -44.225 -27.277 -63.056  0.00  0.00    +0.000 Br
ATOM      6  C   UNL     1     -42.796 -29.320 -64.410  0.00  0.00    +0.000 A 
ATOM      7  C   UNL     1     -42.333 -30.031 -65.513  0.00  0.00    +0.000 A 
ATOM      8  C   UNL     1     -42.750 -29.672 -66.807  0.00  0.00    +0.000 A 
ATOM      9 CL   UNL     1     -42.053 -30.580 -68.100  0.00  0.00    +0.000 Cl
ATOM     10  C   UNL     1     -43.644 -28.597 -66.989  0.00  0.00    +0.000 A 
ATOM     11  C   UNL     1     -44.168 -28.161 -68.309  0.00  0.00    +0.000 A 
ATOM     12  O   UNL     1     -44.201 -28.949 -69.248  0.00  0.00    +0.000 OA
ATOM     13  C   UNL     1     -44.678 -26.730 -68.454  0.00  0.00    +0.000 A 
ATOM     14  H   UNL     1     -45.255 -26.252 -65.271  0.00  0.00    +0.000 HD
ENDROOT
BRANCH   1  15
ATOM     15  S   UNL     1     -45.894 -24.534 -67.117  0.00  0.00    +0.000 S 
ATOM     16  O   UNL     1     -44.698 -23.666 -66.833  0.00  0.00    +0.000 OA
BRANCH  15  17
ATOM     17  C   UNL     1     -46.884 -24.670 -65.590  0.00  0.00    +0.000 C 
BRANCH  17  21
ATOM     18  C   UNL     1     -51.342 -22.148 -64.834  0.00  0.00    +0.000 C 
ATOM     19  C   UNL     1     -50.023 -22.719 -65.186  0.00  0.00    +0.000 A 
ATOM     20  C   UNL     1     -49.255 -23.759 -64.715  0.00  0.00    +0.000 A 
ATOM     21  C   UNL     1     -48.095 -23.768 -65.544  0.00  0.00    +0.000 A 
ATOM     22  N   UNL     1     -48.170 -22.771 -66.442  0.00  0.00    +0.000 NA
ATOM     23  O   UNL     1     -49.370 -22.124 -66.218  0.00  0.00    +0.000 OA
ENDBRANCH  17  21
ENDBRANCH  15  17
ENDBRANCH   1  15
BRANCH  13  24
ATOM     24  C   UNL     1     -44.518 -26.086 -69.813  0.00  0.00    +0.000 C 
ATOM     25  O   UNL     1     -45.459 -26.074 -70.606  0.00  0.00    +0.000 OA
BRANCH  24  26
ATOM     26  C   UNL     1     -43.170 -25.504 -70.239  0.00  0.00    +0.000 C 
ATOM     27  C   UNL     1     -42.795 -25.924 -71.658  0.00  0.00    +0.000 C 
ATOM     28  C   UNL     1     -43.139 -23.979 -70.110  0.00  0.00    +0.000 C 
ENDBRANCH  24  26
ENDBRANCH  13  24
TORSDOF 5
