REMARK VINA RESULT:    -5.790      4.329      5.320
REMARK INTER + INTRA:          -8.662
REMARK INTER:                  -7.766
REMARK INTRA:                  -0.896
REMARK UNBOUND:                -1.180
REMARK  Name = 
REMARK  6 active torsions:
REMARK  status: ('A' for Active; 'I' for Inactive)
REMARK    1  A    between atoms: C_1  and  C_2
REMARK    2  A    between atoms: C_2  and  C_4
REMARK    3  A    between atoms: C_5  and  S_6
REMARK    4  A    between atoms: S_6  and  C_8
REMARK    5  A    between atoms: C_8  and  C_9
REMARK    6  A    between atoms: C_12  and  C_13
REMARK                            x       y       z     vdW  Elec       q    Type
REMARK                         _______ _______ _______ _____ _____    ______ ____
ROOT
ATOM      1  C   UNL     1     -58.566 -42.848 -77.798  0.00  0.00    +0.000 A 
ATOM      2  C   UNL     1     -58.069 -42.096 -78.800  0.00  0.00    +0.000 A 
ATOM      3  N   UNL     1     -58.868 -41.492 -79.751  0.00  0.00    +0.000 N 
ATOM      4  C   UNL     1     -60.254 -41.662 -79.826  0.00  0.00    +0.000 A 
ATOM      5  C   UNL     1     -61.021 -41.005 -80.805  0.00  0.00    +0.000 A 
ATOM      6 BR   UNL     1     -60.204 -39.899 -82.114  0.00  0.00    +0.000 Br
ATOM      7  C   UNL     1     -62.409 -41.143 -80.842  0.00  0.00    +0.000 A 
ATOM      8  C   UNL     1     -63.048 -41.946 -79.899  0.00  0.00    +0.000 A 
ATOM      9  C   UNL     1     -62.307 -42.602 -78.911  0.00  0.00    +0.000 A 
ATOM     10 CL   UNL     1     -63.236 -43.564 -77.814  0.00  0.00    +0.000 Cl
ATOM     11  C   UNL     1     -60.908 -42.449 -78.861  0.00  0.00    +0.000 A 
ATOM     12  C   UNL     1     -60.051 -43.097 -77.825  0.00  0.00    +0.000 A 
ATOM     13  O   UNL     1     -60.542 -43.869 -77.011  0.00  0.00    +0.000 OA
ATOM     14  H   UNL     1     -58.371 -41.072 -80.544  0.00  0.00    +0.000 HD
ENDROOT
BRANCH   1  16
ATOM     15  C   UNL     1     -57.514 -42.644 -75.443  0.00  0.00    +0.000 C 
ATOM     16  C   UNL     1     -57.744 -43.455 -76.699  0.00  0.00    +0.000 C 
ATOM     17  O   UNL     1     -57.220 -44.561 -76.821  0.00  0.00    +0.000 OA
ENDBRANCH   1  16
BRANCH   2  18
ATOM     18  S   UNL     1     -56.286 -41.908 -79.125  0.00  0.00    +0.000 S 
ATOM     19  O   UNL     1     -56.244 -41.425 -80.553  0.00  0.00    +0.000 OA
BRANCH  18  20
ATOM     20  C   UNL     1     -55.893 -40.485 -78.047  0.00  0.00    +0.000 C 
BRANCH  20  21
ATOM     21  C   UNL     1     -54.499 -40.569 -77.447  0.00  0.00    +0.000 A 
ATOM     22  C   UNL     1     -53.605 -39.490 -77.544  0.00  0.00    +0.000 A 
ATOM     23  C   UNL     1     -52.326 -39.563 -76.984  0.00  0.00    +0.000 A 
ATOM     24  C   UNL     1     -51.920 -40.711 -76.297  0.00  0.00    +0.000 A 
ATOM     25  C   UNL     1     -52.808 -41.786 -76.183  0.00  0.00    +0.000 A 
ATOM     26  C   UNL     1     -54.084 -41.717 -76.754  0.00  0.00    +0.000 A 
BRANCH  24  27
ATOM     27  C   UNL     1     -50.606 -40.786 -75.720  0.00  0.00    +0.000 C 
ATOM     28  N   UNL     1     -49.544 -40.843 -75.257  0.00  0.00    +0.000 NA
ENDBRANCH  24  27
ENDBRANCH  20  21
ENDBRANCH  18  20
ENDBRANCH   2  18
TORSDOF 5
