REMARK VINA RESULT:    -6.587      4.014      7.584
REMARK INTER + INTRA:          -9.430
REMARK INTER:                  -9.043
REMARK INTRA:                  -0.386
REMARK UNBOUND:                -0.917
REMARK  Name = 
REMARK  6 active torsions:
REMARK  status: ('A' for Active; 'I' for Inactive)
REMARK    1  A    between atoms: C_1  and  C_2
REMARK    2  A    between atoms: C_4  and  C_5
REMARK    3  A    between atoms: C_5  and  S_6
REMARK    4  A    between atoms: S_6  and  C_8
REMARK    5  A    between atoms: C_20  and  C_21
REMARK    6  A    between atoms: C_21  and  C_23
REMARK                            x       y       z     vdW  Elec       q    Type
REMARK                         _______ _______ _______ _____ _____    ______ ____
ROOT
ATOM      1  C   UNL     1     -55.144 -42.206 -77.765  0.00  0.00    +0.000 A 
ATOM      2  N   UNL     1     -56.480 -42.594 -77.546  0.00  0.00    +0.000 N 
ATOM      3  C   UNL     1     -57.092 -42.397 -76.278  0.00  0.00    +0.000 A 
ATOM      4  C   UNL     1     -58.487 -42.389 -76.091  0.00  0.00    +0.000 A 
ATOM      5 BR   UNL     1     -59.673 -42.464 -77.570  0.00  0.00    +0.000 Br
ATOM      6  C   UNL     1     -59.047 -42.302 -74.809  0.00  0.00    +0.000 A 
ATOM      7  C   UNL     1     -58.209 -42.193 -73.693  0.00  0.00    +0.000 A 
ATOM      8  C   UNL     1     -56.823 -42.196 -73.853  0.00  0.00    +0.000 A 
ATOM      9 CL   UNL     1     -55.879 -41.984 -72.423  0.00  0.00    +0.000 Cl
ATOM     10  C   UNL     1     -56.275 -42.321 -75.139  0.00  0.00    +0.000 A 
ATOM     11  C   UNL     1     -54.825 -42.420 -75.398  0.00  0.00    +0.000 A 
ATOM     12  O   UNL     1     -54.059 -42.926 -74.588  0.00  0.00    +0.000 OA
ATOM     13  C   UNL     1     -54.315 -41.951 -76.729  0.00  0.00    +0.000 A 
ATOM     14  H   UNL     1     -57.090 -42.359 -78.341  0.00  0.00    +0.000 HD
ENDROOT
BRANCH   1  15
ATOM     15  S   UNL     1     -54.845 -41.673 -79.471  0.00  0.00    +0.000 S 
ATOM     16  O   UNL     1     -56.125 -42.002 -80.190  0.00  0.00    +0.000 OA
BRANCH  15  17
ATOM     17  C   UNL     1     -53.532 -42.694 -80.203  0.00  0.00    +0.000 C 
BRANCH  17  21
ATOM     18  C   UNL     1     -50.226 -41.751 -83.998  0.00  0.00    +0.000 C 
ATOM     19  C   UNL     1     -51.320 -41.916 -83.023  0.00  0.00    +0.000 A 
ATOM     20  C   UNL     1     -51.463 -42.595 -81.836  0.00  0.00    +0.000 A 
ATOM     21  C   UNL     1     -52.752 -42.241 -81.378  0.00  0.00    +0.000 A 
ATOM     22  N   UNL     1     -53.371 -41.453 -82.274  0.00  0.00    +0.000 NA
ATOM     23  O   UNL     1     -52.471 -41.252 -83.300  0.00  0.00    +0.000 OA
ENDBRANCH  17  21
ENDBRANCH  15  17
ENDBRANCH   1  15
BRANCH  13  24
ATOM     24  C   UNL     1     -53.069 -41.138 -76.640  0.00  0.00    +0.000 C 
ATOM     25  O   UNL     1     -53.125 -39.923 -76.561  0.00  0.00    +0.000 OA
BRANCH  24  26
ATOM     26  C   UNL     1     -51.768 -41.833 -76.602  0.00  0.00    +0.000 C 
ATOM     27  C   UNL     1     -50.784 -41.504 -75.509  0.00  0.00    +0.000 C 
ATOM     28  C   UNL     1     -50.483 -41.107 -76.922  0.00  0.00    +0.000 C 
ENDBRANCH  24  26
ENDBRANCH  13  24
TORSDOF 5
