REMARK VINA RESULT:    -6.789      3.904      7.378
REMARK INTER + INTRA:          -9.668
REMARK INTER:                  -8.923
REMARK INTRA:                  -0.745
REMARK UNBOUND:                -0.894
REMARK  Name = 
REMARK  8 active torsions:
REMARK  status: ('A' for Active; 'I' for Inactive)
REMARK    1  A    between atoms: C_1  and  C_2
REMARK    2  A    between atoms: C_4  and  C_5
REMARK    3  A    between atoms: C_5  and  S_6
REMARK    4  A    between atoms: S_6  and  C_8
REMARK    5  A    between atoms: C_20  and  C_21
REMARK    6  A    between atoms: C_21  and  C_23
REMARK    7  A    between atoms: C_23  and  C_24
REMARK    8  A    between atoms: C_23  and  C_25
REMARK                            x       y       z     vdW  Elec       q    Type
REMARK                         _______ _______ _______ _____ _____    ______ ____
ROOT
ATOM      1  C   UNL     1     -55.220 -42.263 -77.675  0.00  0.00    +0.000 A 
ATOM      2  N   UNL     1     -56.547 -42.590 -77.407  0.00  0.00    +0.000 N 
ATOM      3  C   UNL     1     -57.116 -42.390 -76.131  0.00  0.00    +0.000 A 
ATOM      4  C   UNL     1     -58.510 -42.340 -75.933  0.00  0.00    +0.000 A 
ATOM      5 CL   UNL     1     -59.594 -42.357 -77.279  0.00  0.00    +0.000 Cl
ATOM      6  C   UNL     1     -59.052 -42.246 -74.651  0.00  0.00    +0.000 A 
ATOM      7  C   UNL     1     -58.200 -42.199 -73.545  0.00  0.00    +0.000 A 
ATOM      8  C   UNL     1     -56.811 -42.233 -73.722  0.00  0.00    +0.000 A 
ATOM      9 CL   UNL     1     -55.864 -42.100 -72.286  0.00  0.00    +0.000 Cl
ATOM     10  C   UNL     1     -56.272 -42.341 -75.013  0.00  0.00    +0.000 A 
ATOM     11  C   UNL     1     -54.823 -42.466 -75.314  0.00  0.00    +0.000 A 
ATOM     12  O   UNL     1     -54.080 -42.968 -74.480  0.00  0.00    +0.000 OA
ATOM     13  C   UNL     1     -54.308 -42.048 -76.686  0.00  0.00    +0.000 A 
ATOM     14  H   UNL     1     -57.180 -42.426 -78.202  0.00  0.00    +0.000 HD
ENDROOT
BRANCH   1  15
ATOM     15  S   UNL     1     -54.968 -41.930 -79.465  0.00  0.00    +0.000 S 
ATOM     16  O   UNL     1     -56.144 -42.600 -80.121  0.00  0.00    +0.000 OA
BRANCH  15  17
ATOM     17  C   UNL     1     -53.474 -42.929 -79.859  0.00  0.00    +0.000 C 
BRANCH  17  21
ATOM     18  C   UNL     1     -50.324 -41.878 -83.822  0.00  0.00    +0.000 C 
ATOM     19  C   UNL     1     -51.372 -42.083 -82.800  0.00  0.00    +0.000 A 
ATOM     20  C   UNL     1     -51.472 -42.812 -81.638  0.00  0.00    +0.000 A 
ATOM     21  C   UNL     1     -52.763 -42.507 -81.120  0.00  0.00    +0.000 A 
ATOM     22  N   UNL     1     -53.403 -41.668 -81.952  0.00  0.00    +0.000 NA
ATOM     23  O   UNL     1     -52.532 -41.403 -82.991  0.00  0.00    +0.000 OA
ENDBRANCH  17  21
ENDBRANCH  15  17
ENDBRANCH   1  15
BRANCH  13  24
ATOM     24  C   UNL     1     -52.910 -41.465 -76.687  0.00  0.00    +0.000 C 
ATOM     25  O   UNL     1     -51.928 -42.219 -76.712  0.00  0.00    +0.000 OA
BRANCH  24  26
ATOM     26  C   UNL     1     -52.651 -39.981 -76.507  0.00  0.00    +0.000 C 
ATOM     27  C   UNL     1     -51.185 -39.750 -76.192  0.00  0.00    +0.000 C 
ATOM     28  C   UNL     1     -53.154 -39.173 -77.698  0.00  0.00    +0.000 C 
ENDBRANCH  24  26
ENDBRANCH  13  24
TORSDOF 5
