REMARK  Name = 
REMARK  6 active torsions:
REMARK  status: ('A' for Active; 'I' for Inactive)
REMARK    1  A    between atoms: C_1  and  C_2
REMARK    2  A    between atoms: C_2  and  C_4
REMARK    3  A    between atoms: C_5  and  S_6
REMARK    4  A    between atoms: S_6  and  C_8
REMARK    5  A    between atoms: C_8  and  C_9
REMARK    6  A    between atoms: C_11  and  C_12
REMARK                            x       y       z     vdW  Elec       q    Type
REMARK                         _______ _______ _______ _____ _____    ______ ____
ROOT
ATOM      1  C   UNL     1       3.084   0.598   1.252  0.00  0.00    +0.000 A 
ATOM      2  C   UNL     1       2.832   0.195   2.518  0.00  0.00    +0.000 A 
ATOM      3  N   UNL     1       3.507   0.687   3.618  0.00  0.00    +0.000 N 
ATOM      4  C   UNL     1       4.586   1.581   3.517  0.00  0.00    +0.000 A 
ATOM      5  C   UNL     1       5.216   2.087   4.670  0.00  0.00    +0.000 A 
ATOM      6 BR   UNL     1       4.674   1.529   6.404  0.00  0.00    +0.000 Br
ATOM      7  C   UNL     1       6.250   3.016   4.575  0.00  0.00    +0.000 A 
ATOM      8  C   UNL     1       6.665   3.457   3.323  0.00  0.00    +0.000 A 
ATOM      9  C   UNL     1       6.038   2.990   2.162  0.00  0.00    +0.000 A 
ATOM     10 CL   UNL     1       6.659   3.635   0.682  0.00  0.00    +0.000 Cl
ATOM     11  C   UNL     1       4.978   2.065   2.256  0.00  0.00    +0.000 A 
ATOM     12  C   UNL     1       4.251   1.531   1.072  0.00  0.00    +0.000 A 
ATOM     13  O   UNL     1       4.631   1.810  -0.059  0.00  0.00    +0.000 OA
ATOM     14  H   UNL     1       3.494   0.095   4.450  0.00  0.00    +0.000 HD
ENDROOT
BRANCH   1  16
ATOM     15  C   UNL     1       2.312   1.026  -1.191  0.00  0.00    +0.000 C 
ATOM     16  C   UNL     1       2.316   0.147   0.039  0.00  0.00    +0.000 C 
ATOM     17  O   UNL     1       1.668  -0.899   0.033  0.00  0.00    +0.000 OA
ENDBRANCH   1  16
BRANCH   2  18
ATOM     18  S   UNL     1       1.683  -1.180   2.860  0.00  0.00    +0.000 S 
ATOM     19  O   UNL     1       2.535  -2.167   3.614  0.00  0.00    +0.000 OA
BRANCH  18  20
ATOM     20  C   UNL     1       0.614  -0.379   4.108  0.00  0.00    +0.000 C 
BRANCH  20  21
ATOM     21  C   UNL     1      -0.461  -1.301   4.586  0.00  0.00    +0.000 A 
ATOM     22  C   UNL     1      -0.340  -2.579   5.194  0.00  0.00    +0.000 A 
ATOM     23  C   UNL     1      -1.628  -2.941   5.497  0.00  0.00    +0.000 A 
ATOM     24  C   UNL     1      -2.246  -4.115   6.143  0.00  0.00    +0.000 C 
ATOM     25  O   UNL     1      -2.470  -1.952   5.102  0.00  0.00    +0.000 OA
ATOM     26  N   UNL     1      -1.744  -0.920   4.534  0.00  0.00    +0.000 NA
ENDBRANCH  20  21
ENDBRANCH  18  20
ENDBRANCH   2  18
TORSDOF 4
