REMARK VINA RESULT:    -5.541      4.570      6.488
REMARK INTER + INTRA:          -7.860
REMARK INTER:                  -6.897
REMARK INTRA:                  -0.963
REMARK UNBOUND:                -0.699
REMARK  Name = 
REMARK  8 active torsions:
REMARK  status: ('A' for Active; 'I' for Inactive)
REMARK    1  A    between atoms: C_1  and  C_2
REMARK    2  A    between atoms: C_4  and  C_5
REMARK    3  A    between atoms: C_5  and  S_6
REMARK    4  A    between atoms: S_6  and  C_8
REMARK    5  A    between atoms: C_20  and  C_21
REMARK    6  A    between atoms: C_21  and  C_23
REMARK    7  A    between atoms: C_23  and  C_24
REMARK    8  A    between atoms: C_23  and  C_25
REMARK                            x       y       z     vdW  Elec       q    Type
REMARK                         _______ _______ _______ _____ _____    ______ ____
ROOT
ATOM      1  C   UNL     1     -56.401 -38.359 -62.030  0.00  0.00    +0.000 A 
ATOM      2  N   UNL     1     -56.440 -39.626 -62.603  0.00  0.00    +0.000 N 
ATOM      3  C   UNL     1     -55.351 -40.141 -63.332  0.00  0.00    +0.000 A 
ATOM      4  C   UNL     1     -55.186 -41.521 -63.557  0.00  0.00    +0.000 A 
ATOM      5 BR   UNL     1     -56.343 -42.787 -62.748  0.00  0.00    +0.000 Br
ATOM      6  C   UNL     1     -54.138 -42.000 -64.350  0.00  0.00    +0.000 A 
ATOM      7  C   UNL     1     -53.238 -41.107 -64.924  0.00  0.00    +0.000 A 
ATOM      8  C   UNL     1     -53.381 -39.725 -64.705  0.00  0.00    +0.000 A 
ATOM      9 CL   UNL     1     -52.163 -38.723 -65.409  0.00  0.00    +0.000 Cl
ATOM     10  C   UNL     1     -54.441 -39.241 -63.911  0.00  0.00    +0.000 A 
ATOM     11  C   UNL     1     -54.697 -37.802 -63.647  0.00  0.00    +0.000 A 
ATOM     12  O   UNL     1     -54.282 -36.950 -64.427  0.00  0.00    +0.000 OA
ATOM     13  C   UNL     1     -55.500 -37.420 -62.407  0.00  0.00    +0.000 A 
ATOM     14  H   UNL     1     -56.988 -40.311 -62.064  0.00  0.00    +0.000 HD
ENDROOT
BRANCH   1  15
ATOM     15  S   UNL     1     -57.542 -38.231 -60.602  0.00  0.00    +0.000 S 
ATOM     16  O   UNL     1     -56.623 -38.118 -59.416  0.00  0.00    +0.000 OA
BRANCH  15  17
ATOM     17  C   UNL     1     -58.343 -39.870 -60.558  0.00  0.00    +0.000 C 
BRANCH  17  21
ATOM     18  C   UNL     1     -63.289 -39.283 -61.970  0.00  0.00    +0.000 C 
ATOM     19  C   UNL     1     -61.872 -39.610 -61.700  0.00  0.00    +0.000 A 
ATOM     20  C   UNL     1     -60.858 -39.026 -60.974  0.00  0.00    +0.000 A 
ATOM     21  C   UNL     1     -59.744 -39.901 -61.123  0.00  0.00    +0.000 A 
ATOM     22  N   UNL     1     -60.079 -40.935 -61.913  0.00  0.00    +0.000 NA
ATOM     23  O   UNL     1     -61.403 -40.752 -62.265  0.00  0.00    +0.000 OA
ENDBRANCH  17  21
ENDBRANCH  15  17
ENDBRANCH   1  15
BRANCH  13  24
ATOM     24  C   UNL     1     -55.163 -36.095 -61.761  0.00  0.00    +0.000 C 
ATOM     25  O   UNL     1     -54.092 -35.949 -61.173  0.00  0.00    +0.000 OA
BRANCH  24  26
ATOM     26  C   UNL     1     -56.174 -34.948 -61.774  0.00  0.00    +0.000 C 
ATOM     27  C   UNL     1     -55.500 -33.596 -61.557  0.00  0.00    +0.000 C 
ATOM     28  C   UNL     1     -57.000 -34.929 -63.063  0.00  0.00    +0.000 C 
ENDBRANCH  24  26
ENDBRANCH  13  24
TORSDOF 5
