REMARK VINA RESULT:    -5.695     14.902     17.808
REMARK INTER + INTRA:          -7.998
REMARK INTER:                  -7.230
REMARK INTRA:                  -0.768
REMARK UNBOUND:                -0.971
REMARK  Name = 
REMARK  6 active torsions:
REMARK  status: ('A' for Active; 'I' for Inactive)
REMARK    1  A    between atoms: C_1  and  C_2
REMARK    2  A    between atoms: C_2  and  C_4
REMARK    3  A    between atoms: C_5  and  S_6
REMARK    4  A    between atoms: S_6  and  C_8
REMARK    5  A    between atoms: C_8  and  C_9
REMARK    6  A    between atoms: C_11  and  C_12
REMARK                            x       y       z     vdW  Elec       q    Type
REMARK                         _______ _______ _______ _____ _____    ______ ____
ROOT
ATOM      1  C   UNL     1     -68.926 -51.237 -55.512  0.00  0.00    +0.000 A 
ATOM      2  C   UNL     1     -68.110 -50.161 -55.583  0.00  0.00    +0.000 A 
ATOM      3  N   UNL     1     -66.938 -50.048 -54.861  0.00  0.00    +0.000 N 
ATOM      4  C   UNL     1     -66.538 -50.992 -53.899  0.00  0.00    +0.000 A 
ATOM      5  C   UNL     1     -65.320 -50.844 -53.209  0.00  0.00    +0.000 A 
ATOM      6 BR   UNL     1     -64.205 -49.334 -53.506  0.00  0.00    +0.000 Br
ATOM      7  C   UNL     1     -64.894 -51.801 -52.292  0.00  0.00    +0.000 A 
ATOM      8  C   UNL     1     -65.682 -52.924 -52.057  0.00  0.00    +0.000 A 
ATOM      9  C   UNL     1     -66.884 -53.108 -52.750  0.00  0.00    +0.000 A 
ATOM     10 CL   UNL     1     -67.751 -54.548 -52.347  0.00  0.00    +0.000 Cl
ATOM     11  C   UNL     1     -67.305 -52.153 -53.698  0.00  0.00    +0.000 A 
ATOM     12  C   UNL     1     -68.555 -52.286 -54.498  0.00  0.00    +0.000 A 
ATOM     13  O   UNL     1     -69.308 -53.232 -54.305  0.00  0.00    +0.000 OA
ATOM     14  H   UNL     1     -66.597 -49.098 -54.716  0.00  0.00    +0.000 HD
ENDROOT
BRANCH   1  16
ATOM     15  C   UNL     1     -71.497 -50.970 -55.764  0.00  0.00    +0.000 C 
ATOM     16  C   UNL     1     -70.172 -51.421 -56.337  0.00  0.00    +0.000 C 
ATOM     17  O   UNL     1     -70.144 -51.956 -57.445  0.00  0.00    +0.000 OA
ENDBRANCH   1  16
BRANCH   2  18
ATOM     18  S   UNL     1     -68.579 -48.677 -56.534  0.00  0.00    +0.000 S 
ATOM     19  O   UNL     1     -69.607 -48.013 -55.657  0.00  0.00    +0.000 OA
BRANCH  18  20
ATOM     20  C   UNL     1     -67.045 -47.701 -56.339  0.00  0.00    +0.000 C 
BRANCH  20  21
ATOM     21  C   UNL     1     -66.310 -47.563 -57.631  0.00  0.00    +0.000 A 
ATOM     22  C   UNL     1     -65.109 -46.858 -57.908  0.00  0.00    +0.000 A 
ATOM     23  C   UNL     1     -64.850 -47.121 -59.230  0.00  0.00    +0.000 A 
ATOM     24  C   UNL     1     -63.788 -46.726 -60.175  0.00  0.00    +0.000 C 
ATOM     25  O   UNL     1     -65.824 -47.934 -59.719  0.00  0.00    +0.000 OA
ATOM     26  N   UNL     1     -66.738 -48.218 -58.719  0.00  0.00    +0.000 NA
ENDBRANCH  20  21
ENDBRANCH  18  20
ENDBRANCH   2  18
TORSDOF 4
