REMARK VINA RESULT:    -5.039      5.156      7.503
REMARK INTER + INTRA:          -6.977
REMARK INTER:                  -6.347
REMARK INTRA:                  -0.630
REMARK UNBOUND:                -0.760
REMARK  Name = 
REMARK  6 active torsions:
REMARK  status: ('A' for Active; 'I' for Inactive)
REMARK    1  A    between atoms: C_1  and  C_2
REMARK    2  A    between atoms: C_2  and  C_4
REMARK    3  A    between atoms: C_5  and  S_6
REMARK    4  A    between atoms: S_6  and  C_8
REMARK    5  A    between atoms: C_8  and  C_9
REMARK    6  A    between atoms: C_11  and  C_12
REMARK                            x       y       z     vdW  Elec       q    Type
REMARK                         _______ _______ _______ _____ _____    ______ ____
ROOT
ATOM      1  C   UNL     1     -59.300 -39.524 -61.658  0.00  0.00    +0.000 A 
ATOM      2  C   UNL     1     -58.275 -38.801 -62.170  0.00  0.00    +0.000 A 
ATOM      3  N   UNL     1     -58.309 -37.427 -62.297  0.00  0.00    +0.000 N 
ATOM      4  C   UNL     1     -59.440 -36.657 -61.987  0.00  0.00    +0.000 A 
ATOM      5  C   UNL     1     -59.399 -35.252 -62.069  0.00  0.00    +0.000 A 
ATOM      6 BR   UNL     1     -57.828 -34.351 -62.646  0.00  0.00    +0.000 Br
ATOM      7  C   UNL     1     -60.503 -34.479 -61.714  0.00  0.00    +0.000 A 
ATOM      8  C   UNL     1     -61.668 -35.103 -61.276  0.00  0.00    +0.000 A 
ATOM      9  C   UNL     1     -61.723 -36.499 -61.163  0.00  0.00    +0.000 A 
ATOM     10 CL   UNL     1     -63.238 -37.127 -60.613  0.00  0.00    +0.000 Cl
ATOM     11  C   UNL     1     -60.597 -37.279 -61.487  0.00  0.00    +0.000 A 
ATOM     12  C   UNL     1     -60.559 -38.758 -61.343  0.00  0.00    +0.000 A 
ATOM     13  O   UNL     1     -61.563 -39.371 -61.003  0.00  0.00    +0.000 OA
ATOM     14  H   UNL     1     -57.665 -37.024 -62.977  0.00  0.00    +0.000 HD
ENDROOT
BRANCH   1  16
ATOM     15  C   UNL     1     -58.714 -41.522 -60.115  0.00  0.00    +0.000 C 
ATOM     16  C   UNL     1     -59.272 -41.009 -61.423  0.00  0.00    +0.000 C 
ATOM     17  O   UNL     1     -59.657 -41.811 -62.277  0.00  0.00    +0.000 OA
ENDBRANCH   1  16
BRANCH   2  18
ATOM     18  S   UNL     1     -56.801 -39.618 -62.869  0.00  0.00    +0.000 S 
ATOM     19  O   UNL     1     -57.319 -40.255 -64.130  0.00  0.00    +0.000 OA
BRANCH  18  20
ATOM     20  C   UNL     1     -55.873 -38.134 -63.400  0.00  0.00    +0.000 C 
BRANCH  20  21
ATOM     21  C   UNL     1     -54.566 -38.490 -64.023  0.00  0.00    +0.000 A 
ATOM     22  C   UNL     1     -54.004 -39.773 -64.245  0.00  0.00    +0.000 A 
ATOM     23  C   UNL     1     -52.840 -39.526 -64.931  0.00  0.00    +0.000 A 
ATOM     24  C   UNL     1     -51.773 -40.374 -65.494  0.00  0.00    +0.000 C 
ATOM     25  O   UNL     1     -52.705 -38.185 -65.107  0.00  0.00    +0.000 OA
ATOM     26  N   UNL     1     -53.787 -37.532 -64.545  0.00  0.00    +0.000 NA
ENDBRANCH  20  21
ENDBRANCH  18  20
ENDBRANCH   2  18
TORSDOF 4
