REMARK VINA RESULT:    -6.764      0.000      0.000
REMARK INTER + INTRA:          -9.640
REMARK INTER:                  -8.741
REMARK INTRA:                  -0.899
REMARK UNBOUND:                -0.899
REMARK  Name = 
REMARK  6 active torsions:
REMARK  status: ('A' for Active; 'I' for Inactive)
REMARK    1  A    between atoms: C_1  and  C_2
REMARK    2  A    between atoms: C_4  and  C_5
REMARK    3  A    between atoms: C_5  and  S_6
REMARK    4  A    between atoms: S_6  and  C_8
REMARK    5  A    between atoms: C_20  and  C_21
REMARK    6  A    between atoms: C_21  and  C_23
REMARK                            x       y       z     vdW  Elec       q    Type
REMARK                         _______ _______ _______ _____ _____    ______ ____
ROOT
ATOM      1  C   UNL     1     -55.344 -43.275 -77.523  0.00  0.00    +0.000 A 
ATOM      2  N   UNL     1     -54.064 -43.425 -76.953  0.00  0.00    +0.000 N 
ATOM      3  C   UNL     1     -53.256 -42.288 -76.680  0.00  0.00    +0.000 A 
ATOM      4  C   UNL     1     -52.172 -42.314 -75.782  0.00  0.00    +0.000 A 
ATOM      5 BR   UNL     1     -51.817 -43.846 -74.721  0.00  0.00    +0.000 Br
ATOM      6  C   UNL     1     -51.334 -41.202 -75.624  0.00  0.00    +0.000 A 
ATOM      7  C   UNL     1     -51.591 -40.033 -76.349  0.00  0.00    +0.000 A 
ATOM      8  C   UNL     1     -52.660 -39.982 -77.244  0.00  0.00    +0.000 A 
ATOM      9 CL   UNL     1     -52.936 -38.472 -78.035  0.00  0.00    +0.000 Cl
ATOM     10  C   UNL     1     -53.470 -41.114 -77.419  0.00  0.00    +0.000 A 
ATOM     11  C   UNL     1     -54.569 -41.183 -78.403  0.00  0.00    +0.000 A 
ATOM     12  O   UNL     1     -54.535 -40.551 -79.451  0.00  0.00    +0.000 OA
ATOM     13  C   UNL     1     -55.707 -42.119 -78.121  0.00  0.00    +0.000 A 
ATOM     14  H   UNL     1     -54.052 -44.132 -76.206  0.00  0.00    +0.000 HD
ENDROOT
BRANCH   1  15
ATOM     15  S   UNL     1     -56.505 -44.553 -76.974  0.00  0.00    +0.000 S 
ATOM     16  O   UNL     1     -57.210 -43.931 -75.799  0.00  0.00    +0.000 OA
BRANCH  15  17
ATOM     17  C   UNL     1     -55.579 -45.988 -76.355  0.00  0.00    +0.000 C 
BRANCH  17  21
ATOM     18  C   UNL     1     -57.692 -50.401 -77.866  0.00  0.00    +0.000 C 
ATOM     19  C   UNL     1     -56.907 -49.245 -77.394  0.00  0.00    +0.000 A 
ATOM     20  C   UNL     1     -57.133 -47.891 -77.313  0.00  0.00    +0.000 A 
ATOM     21  C   UNL     1     -55.987 -47.377 -76.668  0.00  0.00    +0.000 A 
ATOM     22  N   UNL     1     -55.095 -48.357 -76.440  0.00  0.00    +0.000 NA
ATOM     23  O   UNL     1     -55.676 -49.523 -76.895  0.00  0.00    +0.000 OA
ENDBRANCH  17  21
ENDBRANCH  15  17
ENDBRANCH   1  15
BRANCH  13  24
ATOM     24  C   UNL     1     -57.048 -41.530 -78.397  0.00  0.00    +0.000 C 
ATOM     25  O   UNL     1     -57.733 -41.950 -79.313  0.00  0.00    +0.000 OA
BRANCH  24  26
ATOM     26  C   UNL     1     -57.552 -40.464 -77.511  0.00  0.00    +0.000 C 
ATOM     27  C   UNL     1     -57.121 -40.434 -76.067  0.00  0.00    +0.000 C 
ATOM     28  C   UNL     1     -58.542 -40.763 -76.409  0.00  0.00    +0.000 C 
ENDBRANCH  24  26
ENDBRANCH  13  24
TORSDOF 5
