REMARK VINA RESULT:    -5.351     14.403     17.590
REMARK INTER + INTRA:          -7.788
REMARK INTER:                  -6.845
REMARK INTRA:                  -0.944
REMARK UNBOUND:                -0.874
REMARK  Name = 
REMARK  8 active torsions:
REMARK  status: ('A' for Active; 'I' for Inactive)
REMARK    1  A    between atoms: C_1  and  C_2
REMARK    2  A    between atoms: C_4  and  C_5
REMARK    3  A    between atoms: C_5  and  S_6
REMARK    4  A    between atoms: S_6  and  C_8
REMARK    5  A    between atoms: C_20  and  C_21
REMARK    6  A    between atoms: C_21  and  C_23
REMARK    7  A    between atoms: C_23  and  C_24
REMARK    8  A    between atoms: C_23  and  C_25
REMARK                            x       y       z     vdW  Elec       q    Type
REMARK                         _______ _______ _______ _____ _____    ______ ____
ROOT
ATOM      1  C   UNL     1     -54.263 -33.973 -61.281  0.00  0.00    +0.000 A 
ATOM      2  N   UNL     1     -54.444 -32.640 -60.925  0.00  0.00    +0.000 N 
ATOM      3  C   UNL     1     -55.727 -32.098 -60.719  0.00  0.00    +0.000 A 
ATOM      4  C   UNL     1     -55.933 -30.921 -59.975  0.00  0.00    +0.000 A 
ATOM      5 BR   UNL     1     -54.498 -30.079 -59.064  0.00  0.00    +0.000 Br
ATOM      6  C   UNL     1     -57.209 -30.362 -59.852  0.00  0.00    +0.000 A 
ATOM      7  C   UNL     1     -58.297 -30.974 -60.465  0.00  0.00    +0.000 A 
ATOM      8  C   UNL     1     -58.115 -32.156 -61.207  0.00  0.00    +0.000 A 
ATOM      9 CL   UNL     1     -59.548 -32.862 -61.861  0.00  0.00    +0.000 Cl
ATOM     10  C   UNL     1     -56.827 -32.716 -61.337  0.00  0.00    +0.000 A 
ATOM     11  C   UNL     1     -56.524 -33.939 -62.124  0.00  0.00    +0.000 A 
ATOM     12  O   UNL     1     -57.270 -34.283 -63.036  0.00  0.00    +0.000 OA
ATOM     13  C   UNL     1     -55.265 -34.731 -61.785  0.00  0.00    +0.000 A 
ATOM     14  H   UNL     1     -53.693 -32.260 -60.332  0.00  0.00    +0.000 HD
ENDROOT
BRANCH   1  15
ATOM     15  S   UNL     1     -52.609 -34.583 -60.779  0.00  0.00    +0.000 S 
ATOM     16  O   UNL     1     -52.877 -35.348 -59.512  0.00  0.00    +0.000 OA
BRANCH  15  17
ATOM     17  C   UNL     1     -51.710 -33.054 -60.352  0.00  0.00    +0.000 C 
BRANCH  17  21
ATOM     18  C   UNL     1     -47.346 -31.844 -62.861  0.00  0.00    +0.000 C 
ATOM     19  C   UNL     1     -48.684 -32.184 -62.330  0.00  0.00    +0.000 A 
ATOM     20  C   UNL     1     -49.178 -32.561 -61.102  0.00  0.00    +0.000 A 
ATOM     21  C   UNL     1     -50.583 -32.703 -61.295  0.00  0.00    +0.000 A 
ATOM     22  N   UNL     1     -50.895 -32.443 -62.576  0.00  0.00    +0.000 NA
ATOM     23  O   UNL     1     -49.713 -32.118 -63.214  0.00  0.00    +0.000 OA
ENDBRANCH  17  21
ENDBRANCH  15  17
ENDBRANCH   1  15
BRANCH  13  24
ATOM     24  C   UNL     1     -55.320 -36.225 -62.014  0.00  0.00    +0.000 C 
ATOM     25  O   UNL     1     -55.992 -36.941 -61.272  0.00  0.00    +0.000 OA
BRANCH  24  26
ATOM     26  C   UNL     1     -54.489 -36.868 -63.125  0.00  0.00    +0.000 C 
ATOM     27  C   UNL     1     -54.543 -38.392 -63.063  0.00  0.00    +0.000 C 
ATOM     28  C   UNL     1     -54.913 -36.377 -64.512  0.00  0.00    +0.000 C 
ENDBRANCH  24  26
ENDBRANCH  13  24
TORSDOF 5
