REMARK VINA RESULT:    -4.892     13.401     15.455
REMARK INTER + INTRA:          -6.717
REMARK INTER:                  -5.979
REMARK INTRA:                  -0.738
REMARK UNBOUND:                -0.681
REMARK  Name = 
REMARK  6 active torsions:
REMARK  status: ('A' for Active; 'I' for Inactive)
REMARK    1  A    between atoms: C_1  and  C_2
REMARK    2  A    between atoms: C_2  and  C_4
REMARK    3  A    between atoms: C_5  and  S_6
REMARK    4  A    between atoms: S_6  and  C_8
REMARK    5  A    between atoms: C_8  and  C_9
REMARK    6  A    between atoms: C_11  and  C_12
REMARK                            x       y       z     vdW  Elec       q    Type
REMARK                         _______ _______ _______ _____ _____    ______ ____
ROOT
ATOM      1  C   UNL     1     -66.489 -41.270 -70.404  0.00  0.00    +0.000 A 
ATOM      2  C   UNL     1     -66.474 -41.855 -71.622  0.00  0.00    +0.000 A 
ATOM      3  N   UNL     1     -65.321 -42.295 -72.241  0.00  0.00    +0.000 N 
ATOM      4  C   UNL     1     -64.038 -42.053 -71.721  0.00  0.00    +0.000 A 
ATOM      5  C   UNL     1     -62.889 -42.506 -72.395  0.00  0.00    +0.000 A 
ATOM      6 BR   UNL     1     -63.026 -43.407 -74.064  0.00  0.00    +0.000 Br
ATOM      7  C   UNL     1     -61.618 -42.315 -71.859  0.00  0.00    +0.000 A 
ATOM      8  C   UNL     1     -61.480 -41.668 -70.636  0.00  0.00    +0.000 A 
ATOM      9  C   UNL     1     -62.607 -41.226 -69.932  0.00  0.00    +0.000 A 
ATOM     10 CL   UNL     1     -62.272 -40.431 -68.432  0.00  0.00    +0.000 Cl
ATOM     11  C   UNL     1     -63.895 -41.440 -70.463  0.00  0.00    +0.000 A 
ATOM     12  C   UNL     1     -65.146 -41.020 -69.772  0.00  0.00    +0.000 A 
ATOM     13  O   UNL     1     -65.081 -40.426 -68.700  0.00  0.00    +0.000 OA
ATOM     14  H   UNL     1     -65.373 -42.386 -73.256  0.00  0.00    +0.000 HD
ENDROOT
BRANCH   1  16
ATOM     15  C   UNL     1     -68.393 -41.777 -68.702  0.00  0.00    +0.000 C 
ATOM     16  C   UNL     1     -67.734 -40.828 -69.682  0.00  0.00    +0.000 C 
ATOM     17  O   UNL     1     -68.240 -39.722 -69.877  0.00  0.00    +0.000 OA
ENDBRANCH   1  16
BRANCH   2  18
ATOM     18  S   UNL     1     -67.981 -41.952 -72.648  0.00  0.00    +0.000 S 
ATOM     19  O   UNL     1     -68.137 -40.550 -73.173  0.00  0.00    +0.000 OA
BRANCH  18  20
ATOM     20  C   UNL     1     -67.331 -42.939 -74.044  0.00  0.00    +0.000 C 
BRANCH  20  21
ATOM     21  C   UNL     1     -68.206 -44.114 -74.330  0.00  0.00    +0.000 A 
ATOM     22  C   UNL     1     -68.397 -44.815 -75.550  0.00  0.00    +0.000 A 
ATOM     23  C   UNL     1     -69.275 -45.824 -75.235  0.00  0.00    +0.000 A 
ATOM     24  C   UNL     1     -69.920 -46.911 -75.996  0.00  0.00    +0.000 C 
ATOM     25  O   UNL     1     -69.581 -45.749 -73.913  0.00  0.00    +0.000 OA
ATOM     26  N   UNL     1     -68.908 -44.685 -73.339  0.00  0.00    +0.000 NA
ENDBRANCH  20  21
ENDBRANCH  18  20
ENDBRANCH   2  18
TORSDOF 4
