REMARK VINA RESULT:    -5.747      2.996      3.924
REMARK INTER + INTRA:          -8.325
REMARK INTER:                  -7.427
REMARK INTRA:                  -0.898
REMARK UNBOUND:                -0.899
REMARK  Name = 
REMARK  6 active torsions:
REMARK  status: ('A' for Active; 'I' for Inactive)
REMARK    1  A    between atoms: C_1  and  C_2
REMARK    2  A    between atoms: C_4  and  C_5
REMARK    3  A    between atoms: C_5  and  S_6
REMARK    4  A    between atoms: S_6  and  C_8
REMARK    5  A    between atoms: C_20  and  C_21
REMARK    6  A    between atoms: C_21  and  C_23
REMARK                            x       y       z     vdW  Elec       q    Type
REMARK                         _______ _______ _______ _____ _____    ______ ____
ROOT
ATOM      1  C   UNL     1     -55.291 -43.780 -78.496  0.00  0.00    +0.000 A 
ATOM      2  N   UNL     1     -55.519 -43.454 -79.847  0.00  0.00    +0.000 N 
ATOM      3  C   UNL     1     -54.999 -42.251 -80.399  0.00  0.00    +0.000 A 
ATOM      4  C   UNL     1     -54.845 -42.045 -81.782  0.00  0.00    +0.000 A 
ATOM      5 BR   UNL     1     -55.157 -43.447 -83.022  0.00  0.00    +0.000 Br
ATOM      6  C   UNL     1     -54.433 -40.805 -82.289  0.00  0.00    +0.000 A 
ATOM      7  C   UNL     1     -54.142 -39.758 -81.406  0.00  0.00    +0.000 A 
ATOM      8  C   UNL     1     -54.286 -39.939 -80.031  0.00  0.00    +0.000 A 
ATOM      9 CL   UNL     1     -53.833 -38.611 -79.024  0.00  0.00    +0.000 Cl
ATOM     10  C   UNL     1     -54.733 -41.174 -79.538  0.00  0.00    +0.000 A 
ATOM     11  C   UNL     1     -54.997 -41.432 -78.109  0.00  0.00    +0.000 A 
ATOM     12  O   UNL     1     -55.367 -40.544 -77.351  0.00  0.00    +0.000 OA
ATOM     13  C   UNL     1     -54.876 -42.843 -77.615  0.00  0.00    +0.000 A 
ATOM     14  H   UNL     1     -55.421 -44.270 -80.466  0.00  0.00    +0.000 HD
ENDROOT
BRANCH   1  15
ATOM     15  S   UNL     1     -55.176 -45.568 -78.220  0.00  0.00    +0.000 S 
ATOM     16  O   UNL     1     -55.258 -46.160 -79.601  0.00  0.00    +0.000 OA
BRANCH  15  17
ATOM     17  C   UNL     1     -56.635 -46.134 -77.298  0.00  0.00    +0.000 C 
BRANCH  17  21
ATOM     18  C   UNL     1     -57.798 -51.117 -77.491  0.00  0.00    +0.000 C 
ATOM     19  C   UNL     1     -57.669 -49.648 -77.477  0.00  0.00    +0.000 A 
ATOM     20  C   UNL     1     -56.652 -48.769 -77.188  0.00  0.00    +0.000 A 
ATOM     21  C   UNL     1     -57.192 -47.496 -77.473  0.00  0.00    +0.000 A 
ATOM     22  N   UNL     1     -58.480 -47.601 -77.844  0.00  0.00    +0.000 NA
ATOM     23  O   UNL     1     -58.772 -48.949 -77.846  0.00  0.00    +0.000 OA
ENDBRANCH  17  21
ENDBRANCH  15  17
ENDBRANCH   1  15
BRANCH  13  24
ATOM     24  C   UNL     1     -54.160 -42.963 -76.313  0.00  0.00    +0.000 C 
ATOM     25  O   UNL     1     -52.970 -42.712 -76.234  0.00  0.00    +0.000 OA
BRANCH  24  26
ATOM     26  C   UNL     1     -54.928 -43.343 -75.112  0.00  0.00    +0.000 C 
ATOM     27  C   UNL     1     -56.424 -43.162 -75.100  0.00  0.00    +0.000 C 
ATOM     28  C   UNL     1     -55.566 -42.298 -74.227  0.00  0.00    +0.000 C 
ENDBRANCH  24  26
ENDBRANCH  13  24
TORSDOF 5
