REMARK VINA RESULT:    -5.927      3.829      5.642
REMARK INTER + INTRA:          -8.602
REMARK INTER:                  -7.640
REMARK INTRA:                  -0.962
REMARK UNBOUND:                -0.943
REMARK  Name = 
REMARK  6 active torsions:
REMARK  status: ('A' for Active; 'I' for Inactive)
REMARK    1  A    between atoms: C_1  and  C_2
REMARK    2  A    between atoms: C_4  and  C_5
REMARK    3  A    between atoms: C_5  and  S_6
REMARK    4  A    between atoms: S_6  and  C_8
REMARK    5  A    between atoms: C_20  and  C_21
REMARK    6  A    between atoms: C_21  and  C_23
REMARK                            x       y       z     vdW  Elec       q    Type
REMARK                         _______ _______ _______ _____ _____    ______ ____
ROOT
ATOM      1  C   UNL     1     -57.064 -42.616 -77.164  0.00  0.00    +0.000 A 
ATOM      2  N   UNL     1     -58.066 -43.407 -77.758  0.00  0.00    +0.000 N 
ATOM      3  C   UNL     1     -58.019 -44.825 -77.664  0.00  0.00    +0.000 A 
ATOM      4  C   UNL     1     -59.142 -45.647 -77.876  0.00  0.00    +0.000 A 
ATOM      5 BR   UNL     1     -60.867 -44.900 -78.131  0.00  0.00    +0.000 Br
ATOM      6  C   UNL     1     -59.028 -47.044 -77.882  0.00  0.00    +0.000 A 
ATOM      7  C   UNL     1     -57.783 -47.638 -77.646  0.00  0.00    +0.000 A 
ATOM      8  C   UNL     1     -56.656 -46.845 -77.431  0.00  0.00    +0.000 A 
ATOM      9 CL   UNL     1     -55.183 -47.673 -77.078  0.00  0.00    +0.000 Cl
ATOM     10  C   UNL     1     -56.777 -45.447 -77.463  0.00  0.00    +0.000 A 
ATOM     11  C   UNL     1     -55.629 -44.529 -77.333  0.00  0.00    +0.000 A 
ATOM     12  O   UNL     1     -54.508 -44.840 -77.715  0.00  0.00    +0.000 OA
ATOM     13  C   UNL     1     -55.885 -43.156 -76.786  0.00  0.00    +0.000 A 
ATOM     14  H   UNL     1     -59.007 -43.014 -77.619  0.00  0.00    +0.000 HD
ENDROOT
BRANCH   1  15
ATOM     15  S   UNL     1     -57.691 -41.017 -76.585  0.00  0.00    +0.000 S 
ATOM     16  O   UNL     1     -56.760 -40.010 -77.203  0.00  0.00    +0.000 OA
BRANCH  15  17
ATOM     17  C   UNL     1     -57.495 -40.905 -74.783  0.00  0.00    +0.000 C 
BRANCH  17  21
ATOM     18  C   UNL     1     -60.850 -41.914 -71.048  0.00  0.00    +0.000 C 
ATOM     19  C   UNL     1     -59.998 -41.759 -72.241  0.00  0.00    +0.000 A 
ATOM     20  C   UNL     1     -58.927 -40.961 -72.568  0.00  0.00    +0.000 A 
ATOM     21  C   UNL     1     -58.532 -41.405 -73.850  0.00  0.00    +0.000 A 
ATOM     22  N   UNL     1     -59.362 -42.364 -74.294  0.00  0.00    +0.000 NA
ATOM     23  O   UNL     1     -60.276 -42.583 -73.283  0.00  0.00    +0.000 OA
ENDBRANCH  17  21
ENDBRANCH  15  17
ENDBRANCH   1  15
BRANCH  13  24
ATOM     24  C   UNL     1     -54.871 -42.710 -75.788  0.00  0.00    +0.000 C 
ATOM     25  O   UNL     1     -54.816 -43.229 -74.686  0.00  0.00    +0.000 OA
BRANCH  24  26
ATOM     26  C   UNL     1     -53.906 -41.663 -76.173  0.00  0.00    +0.000 C 
ATOM     27  C   UNL     1     -53.525 -41.504 -77.623  0.00  0.00    +0.000 C 
ATOM     28  C   UNL     1     -52.514 -42.016 -76.643  0.00  0.00    +0.000 C 
ENDBRANCH  24  26
ENDBRANCH  13  24
TORSDOF 5
