REMARK VINA RESULT:    -5.729      3.690      6.451
REMARK INTER + INTRA:          -8.329
REMARK INTER:                  -7.139
REMARK INTRA:                  -1.190
REMARK UNBOUND:                -0.925
REMARK  Name = 
REMARK  8 active torsions:
REMARK  status: ('A' for Active; 'I' for Inactive)
REMARK    1  A    between atoms: C_1  and  C_2
REMARK    2  A    between atoms: C_4  and  C_5
REMARK    3  A    between atoms: C_5  and  S_6
REMARK    4  A    between atoms: S_6  and  C_8
REMARK    5  A    between atoms: C_20  and  C_21
REMARK    6  A    between atoms: C_21  and  C_23
REMARK    7  A    between atoms: C_23  and  C_24
REMARK    8  A    between atoms: C_23  and  C_25
REMARK                            x       y       z     vdW  Elec       q    Type
REMARK                         _______ _______ _______ _____ _____    ______ ____
ROOT
ATOM      1  C   UNL     1     -57.972 -43.872 -77.048  0.00  0.00    +0.000 A 
ATOM      2  N   UNL     1     -57.984 -45.053 -77.786  0.00  0.00    +0.000 N 
ATOM      3  C   UNL     1     -57.229 -46.179 -77.395  0.00  0.00    +0.000 A 
ATOM      4  C   UNL     1     -57.512 -47.473 -77.877  0.00  0.00    +0.000 A 
ATOM      5 CL   UNL     1     -58.908 -47.767 -78.851  0.00  0.00    +0.000 Cl
ATOM      6  C   UNL     1     -56.689 -48.554 -77.559  0.00  0.00    +0.000 A 
ATOM      7  C   UNL     1     -55.569 -48.354 -76.748  0.00  0.00    +0.000 A 
ATOM      8  C   UNL     1     -55.280 -47.078 -76.247  0.00  0.00    +0.000 A 
ATOM      9 CL   UNL     1     -53.911 -46.969 -75.204  0.00  0.00    +0.000 Cl
ATOM     10  C   UNL     1     -56.103 -45.991 -76.582  0.00  0.00    +0.000 A 
ATOM     11  C   UNL     1     -55.850 -44.585 -76.176  0.00  0.00    +0.000 A 
ATOM     12  O   UNL     1     -54.699 -44.222 -75.966  0.00  0.00    +0.000 OA
ATOM     13  C   UNL     1     -57.014 -43.604 -76.116  0.00  0.00    +0.000 A 
ATOM     14  H   UNL     1     -58.896 -45.261 -78.215  0.00  0.00    +0.000 HD
ENDROOT
BRANCH   1  15
ATOM     15  S   UNL     1     -59.508 -42.901 -77.325  0.00  0.00    +0.000 S 
ATOM     16  O   UNL     1     -60.219 -43.661 -78.411  0.00  0.00    +0.000 OA
BRANCH  15  17
ATOM     17  C   UNL     1     -58.876 -41.341 -78.067  0.00  0.00    +0.000 C 
BRANCH  17  21
ATOM     18  C   UNL     1     -54.347 -41.518 -80.555  0.00  0.00    +0.000 C 
ATOM     19  C   UNL     1     -55.717 -41.579 -80.002  0.00  0.00    +0.000 A 
ATOM     20  C   UNL     1     -56.299 -41.250 -78.800  0.00  0.00    +0.000 A 
ATOM     21  C   UNL     1     -57.685 -41.526 -78.973  0.00  0.00    +0.000 A 
ATOM     22  N   UNL     1     -57.902 -42.023 -80.203  0.00  0.00    +0.000 NA
ATOM     23  O   UNL     1     -56.677 -42.048 -80.840  0.00  0.00    +0.000 OA
ENDBRANCH  17  21
ENDBRANCH  15  17
ENDBRANCH   1  15
BRANCH  13  24
ATOM     24  C   UNL     1     -56.898 -42.547 -75.037  0.00  0.00    +0.000 C 
ATOM     25  O   UNL     1     -56.239 -41.521 -75.250  0.00  0.00    +0.000 OA
BRANCH  24  26
ATOM     26  C   UNL     1     -57.437 -42.759 -73.635  0.00  0.00    +0.000 C 
ATOM     27  C   UNL     1     -56.495 -42.132 -72.624  0.00  0.00    +0.000 C 
ATOM     28  C   UNL     1     -58.877 -42.279 -73.507  0.00  0.00    +0.000 C 
ENDBRANCH  24  26
ENDBRANCH  13  24
TORSDOF 5
