REMARK VINA RESULT:    -5.710      3.378      5.086
REMARK INTER + INTRA:          -8.015
REMARK INTER:                  -7.453
REMARK INTRA:                  -0.562
REMARK UNBOUND:                -0.971
REMARK  Name = 
REMARK  6 active torsions:
REMARK  status: ('A' for Active; 'I' for Inactive)
REMARK    1  A    between atoms: C_1  and  C_2
REMARK    2  A    between atoms: C_2  and  C_4
REMARK    3  A    between atoms: C_5  and  S_6
REMARK    4  A    between atoms: S_6  and  C_8
REMARK    5  A    between atoms: C_8  and  C_9
REMARK    6  A    between atoms: C_11  and  C_12
REMARK                            x       y       z     vdW  Elec       q    Type
REMARK                         _______ _______ _______ _____ _____    ______ ____
ROOT
ATOM      1  C   UNL     1     -56.185 -42.060 -75.660  0.00  0.00    +0.000 A 
ATOM      2  C   UNL     1     -56.732 -41.695 -76.844  0.00  0.00    +0.000 A 
ATOM      3  N   UNL     1     -55.999 -41.555 -78.009  0.00  0.00    +0.000 N 
ATOM      4  C   UNL     1     -54.592 -41.573 -78.022  0.00  0.00    +0.000 A 
ATOM      5  C   UNL     1     -53.877 -41.321 -79.208  0.00  0.00    +0.000 A 
ATOM      6 BR   UNL     1     -54.781 -40.879 -80.819  0.00  0.00    +0.000 Br
ATOM      7  C   UNL     1     -52.485 -41.379 -79.235  0.00  0.00    +0.000 A 
ATOM      8  C   UNL     1     -51.788 -41.697 -78.074  0.00  0.00    +0.000 A 
ATOM      9  C   UNL     1     -52.476 -41.979 -76.888  0.00  0.00    +0.000 A 
ATOM     10 CL   UNL     1     -51.472 -42.326 -75.523  0.00  0.00    +0.000 Cl
ATOM     11  C   UNL     1     -53.885 -41.942 -76.866  0.00  0.00    +0.000 A 
ATOM     12  C   UNL     1     -54.692 -42.266 -75.657  0.00  0.00    +0.000 A 
ATOM     13  O   UNL     1     -54.131 -42.680 -74.651  0.00  0.00    +0.000 OA
ATOM     14  H   UNL     1     -56.424 -40.947 -78.713  0.00  0.00    +0.000 HD
ENDROOT
BRANCH   1  16
ATOM     15  C   UNL     1     -57.114 -41.060 -73.434  0.00  0.00    +0.000 C 
ATOM     16  C   UNL     1     -56.960 -42.235 -74.378  0.00  0.00    +0.000 C 
ATOM     17  O   UNL     1     -57.471 -43.315 -74.072  0.00  0.00    +0.000 OA
ENDBRANCH   1  16
BRANCH   2  18
ATOM     18  S   UNL     1     -58.485 -41.178 -76.977  0.00  0.00    +0.000 S 
ATOM     19  O   UNL     1     -58.387 -39.767 -77.493  0.00  0.00    +0.000 OA
BRANCH  18  20
ATOM     20  C   UNL     1     -58.989 -42.202 -78.405  0.00  0.00    +0.000 C 
BRANCH  20  21
ATOM     21  C   UNL     1     -59.631 -41.396 -79.491  0.00  0.00    +0.000 A 
ATOM     22  C   UNL     1     -60.758 -40.535 -79.432  0.00  0.00    +0.000 A 
ATOM     23  C   UNL     1     -60.828 -39.963 -80.679  0.00  0.00    +0.000 A 
ATOM     24  C   UNL     1     -61.705 -38.965 -81.321  0.00  0.00    +0.000 C 
ATOM     25  O   UNL     1     -59.817 -40.459 -81.447  0.00  0.00    +0.000 OA
ATOM     26  N   UNL     1     -59.063 -41.350 -80.703  0.00  0.00    +0.000 NA
ENDBRANCH  20  21
ENDBRANCH  18  20
ENDBRANCH   2  18
TORSDOF 4
