REMARK VINA RESULT:    -6.306      3.058      4.663
REMARK INTER + INTRA:          -9.071
REMARK INTER:                  -8.027
REMARK INTRA:                  -1.045
REMARK UNBOUND:                -0.922
REMARK  Name = 
REMARK  6 active torsions:
REMARK  status: ('A' for Active; 'I' for Inactive)
REMARK    1  A    between atoms: C_1  and  C_2
REMARK    2  A    between atoms: C_4  and  C_5
REMARK    3  A    between atoms: C_5  and  S_6
REMARK    4  A    between atoms: S_6  and  C_8
REMARK    5  A    between atoms: C_20  and  C_21
REMARK    6  A    between atoms: C_21  and  C_23
REMARK                            x       y       z     vdW  Elec       q    Type
REMARK                         _______ _______ _______ _____ _____    ______ ____
ROOT
ATOM      1  C   UNL     1     -55.380 -42.831 -78.796  0.00  0.00    +0.000 A 
ATOM      2  N   UNL     1     -55.566 -44.216 -78.622  0.00  0.00    +0.000 N 
ATOM      3  C   UNL     1     -55.121 -44.862 -77.436  0.00  0.00    +0.000 A 
ATOM      4  C   UNL     1     -55.601 -46.118 -77.020  0.00  0.00    +0.000 A 
ATOM      5 BR   UNL     1     -57.029 -46.972 -77.931  0.00  0.00    +0.000 Br
ATOM      6  C   UNL     1     -55.056 -46.769 -75.904  0.00  0.00    +0.000 A 
ATOM      7  C   UNL     1     -54.035 -46.152 -75.172  0.00  0.00    +0.000 A 
ATOM      8  C   UNL     1     -53.545 -44.906 -75.564  0.00  0.00    +0.000 A 
ATOM      9 CL   UNL     1     -52.337 -44.197 -74.554  0.00  0.00    +0.000 Cl
ATOM     10  C   UNL     1     -54.074 -44.281 -76.704  0.00  0.00    +0.000 A 
ATOM     11  C   UNL     1     -53.562 -43.007 -77.243  0.00  0.00    +0.000 A 
ATOM     12  O   UNL     1     -52.388 -42.679 -77.119  0.00  0.00    +0.000 OA
ATOM     13  C   UNL     1     -54.506 -42.145 -78.028  0.00  0.00    +0.000 A 
ATOM     14  H   UNL     1     -56.494 -44.528 -78.940  0.00  0.00    +0.000 HD
ENDROOT
BRANCH   1  15
ATOM     15  S   UNL     1     -56.700 -42.069 -79.777  0.00  0.00    +0.000 S 
ATOM     16  O   UNL     1     -56.002 -40.995 -80.565  0.00  0.00    +0.000 OA
BRANCH  15  17
ATOM     17  C   UNL     1     -57.882 -41.248 -78.668  0.00  0.00    +0.000 C 
BRANCH  17  21
ATOM     18  C   UNL     1     -58.987 -42.122 -73.745  0.00  0.00    +0.000 C 
ATOM     19  C   UNL     1     -58.697 -42.080 -75.190  0.00  0.00    +0.000 A 
ATOM     20  C   UNL     1     -58.450 -41.077 -76.098  0.00  0.00    +0.000 A 
ATOM     21  C   UNL     1     -58.156 -41.753 -77.303  0.00  0.00    +0.000 A 
ATOM     22  N   UNL     1     -58.289 -43.082 -77.142  0.00  0.00    +0.000 NA
ATOM     23  O   UNL     1     -58.626 -43.280 -75.820  0.00  0.00    +0.000 OA
ENDBRANCH  17  21
ENDBRANCH  15  17
ENDBRANCH   1  15
BRANCH  13  24
ATOM     24  C   UNL     1     -54.421 -40.697 -77.684  0.00  0.00    +0.000 C 
ATOM     25  O   UNL     1     -55.146 -40.220 -76.828  0.00  0.00    +0.000 OA
BRANCH  24  26
ATOM     26  C   UNL     1     -53.413 -39.862 -78.365  0.00  0.00    +0.000 C 
ATOM     27  C   UNL     1     -53.182 -38.449 -77.895  0.00  0.00    +0.000 C 
ATOM     28  C   UNL     1     -53.820 -38.692 -79.229  0.00  0.00    +0.000 C 
ENDBRANCH  24  26
ENDBRANCH  13  24
TORSDOF 5
