=
 OpenBabel09162515223D

 28 31  0  0  1  0  0  0  0  0999 V2000
  -55.7830  -42.7790  -76.7950 C   0  0  2  0  0  3  0  0  0  0  0  0
  -54.4550  -43.1150  -76.4680 N   0  0  0  0  0  0  0  0  0  0  0  0
  -53.4620  -42.1040  -76.3450 C   0  0  0  0  0  0  0  0  0  0  0  0
  -52.2490  -42.2990  -75.6590 C   0  0  0  0  0  0  0  0  0  0  0  0
  -51.9210  -43.8910  -74.6830 Br  0  0  0  0  0  0  0  0  0  0  0  0
  -51.2520  -41.3130  -75.6550 C   0  0  0  0  0  3  0  0  0  0  0  0
  -51.4730  -40.1010  -76.3200 C   0  0  0  0  0  3  0  0  0  0  0  0
  -52.6690  -39.8850  -77.0040 C   0  0  0  0  0  0  0  0  0  0  0  0
  -52.8740  -38.3310  -77.7300 Cl  0  0  0  0  0  0  0  0  0  0  0  0
  -53.6440  -40.8930  -77.0310 C   0  0  0  0  0  0  0  0  0  0  0  0
  -54.9010  -40.7880  -77.7980 C   0  0  0  0  0  0  0  0  0  0  0  0
  -54.9710  -40.1390  -78.8340 O   0  0  0  0  0  0  0  0  0  0  0  0
  -56.0870  -41.5700  -77.3160 C   0  0  2  0  0  3  0  0  0  0  0  0
  -54.4040  -43.8370  -75.7360 H   0  0  0  0  0  0  0  0  0  0  0  0
  -56.9900  -43.9040  -76.0450 S   0  0  2  0  0  0  0  0  0  0  0  0
  -57.7650  -44.4470  -77.2150 O   0  0  0  0  0  0  0  0  0  0  0  0
  -58.1480  -42.9540  -75.0180 C   0  0  0  0  0  2  0  0  0  0  0  0
  -55.9190  -41.0880  -70.8030 C   0  0  0  0  0  1  0  0  0  0  0  0
  -56.7400  -41.5370  -71.9430 C   0  0  0  0  0  0  0  0  0  0  0  0
  -56.4790  -42.1840  -73.1270 C   0  0  0  0  0  3  0  0  0  0  0  0
  -57.7500  -42.3850  -73.7100 C   0  0  0  0  0  0  0  0  0  0  0  0
  -58.7100  -41.8280  -72.9510 N   0  0  0  0  0  0  0  0  0  0  0  0
  -58.0730  -41.3000  -71.8470 O   0  0  0  0  0  0  0  0  0  0  0  0
  -57.3630  -40.8000  -77.3410 C   0  0  0  0  0  0  0  0  0  0  0  0
  -57.5850  -39.9420  -76.5040 O   0  0  0  0  0  0  0  0  0  0  0  0
  -58.3290  -41.0600  -78.4240 C   0  0  0  0  0  3  0  0  0  0  0  0
  -59.6260  -40.2940  -78.4610 C   0  0  0  0  0  2  0  0  0  0  0  0
  -59.6400  -41.7600  -78.1530 C   0  0  0  0  0  2  0  0  0  0  0  0
  1  2  1  0  0  0  0
  1 15  1  1  0  0  0
  2  3  1  0  0  0  0
  2 14  1  0  0  0  0
  3  4  1  0  0  0  0
  4  6  2  0  0  0  0
  4  5  1  0  0  0  0
  7  6  1  0  0  0  0
  8  7  2  0  0  0  0
  9  8  1  0  0  0  0
 10  8  1  0  0  0  0
 10  3  2  0  0  0  0
 11 13  1  0  0  0  0
 11 10  1  0  0  0  0
 12 11  2  0  0  0  0
 13 24  1  1  0  0  0
 13  1  1  0  0  0  0
 15 16  2  6  0  0  0
 15 17  1  0  0  0  0
 17 21  1  0  0  0  0
 19 23  1  0  0  0  0
 19 18  1  0  0  0  0
 20 19  2  0  0  0  0
 21 20  1  0  0  0  0
 21 22  2  0  0  0  0
 22 23  1  0  0  0  0
 24 25  2  0  0  0  0
 26 28  1  0  0  0  0
 26 24  1  0  0  0  0
 27 26  1  0  0  0  0
 27 28  1  0  0  0  0
M  END
>  <MODEL>
1

>  <REMARK>
 VINA RESULT:    -7.438      0.000      0.000
 INTER + INTRA:         -10.534
 INTER:                  -9.613
 INTRA:                  -0.922
 UNBOUND:                -0.922
  Name = 
  6 active torsions:
  status: ('A' for Active; 'I' for Inactive)
    1  A    between atoms: C_1  and  C_2
    2  A    between atoms: C_4  and  C_5
    3  A    between atoms: C_5  and  S_6
    4  A    between atoms: S_6  and  C_8
    5  A    between atoms: C_20  and  C_21
    6  A    between atoms: C_21  and  C_23
                            x       y       z     vdW  Elec       q    Type
                         _______ _______ _______ _____ _____    ______ ____

>  <TORSDO>
F 5

$$$$
