REMARK VINA RESULT:    -5.610     20.439     23.901
REMARK INTER + INTRA:          -8.044
REMARK INTER:                  -6.914
REMARK INTRA:                  -1.130
REMARK UNBOUND:                -0.794
REMARK  Name = 
REMARK  8 active torsions:
REMARK  status: ('A' for Active; 'I' for Inactive)
REMARK    1  A    between atoms: C_1  and  C_2
REMARK    2  A    between atoms: C_4  and  C_5
REMARK    3  A    between atoms: C_5  and  S_6
REMARK    4  A    between atoms: S_6  and  C_8
REMARK    5  A    between atoms: C_20  and  C_21
REMARK    6  A    between atoms: C_21  and  C_23
REMARK    7  A    between atoms: C_23  and  C_24
REMARK    8  A    between atoms: C_23  and  C_25
REMARK                            x       y       z     vdW  Elec       q    Type
REMARK                         _______ _______ _______ _____ _____    ______ ____
ROOT
ATOM      1  C   UNL     1     -65.400 -47.473 -55.640  0.00  0.00    +0.000 A 
ATOM      2  N   UNL     1     -64.922 -47.411 -54.334  0.00  0.00    +0.000 N 
ATOM      3  C   UNL     1     -64.268 -46.266 -53.841  0.00  0.00    +0.000 A 
ATOM      4  C   UNL     1     -64.152 -46.004 -52.462  0.00  0.00    +0.000 A 
ATOM      5 BR   UNL     1     -65.020 -47.105 -51.184  0.00  0.00    +0.000 Br
ATOM      6  C   UNL     1     -63.429 -44.902 -51.998  0.00  0.00    +0.000 A 
ATOM      7  C   UNL     1     -62.816 -44.042 -52.904  0.00  0.00    +0.000 A 
ATOM      8  C   UNL     1     -62.926 -44.281 -54.286  0.00  0.00    +0.000 A 
ATOM      9 CL   UNL     1     -62.185 -43.107 -55.313  0.00  0.00    +0.000 Cl
ATOM     10  C   UNL     1     -63.649 -45.397 -54.754  0.00  0.00    +0.000 A 
ATOM     11  C   UNL     1     -63.796 -45.755 -56.189  0.00  0.00    +0.000 A 
ATOM     12  O   UNL     1     -62.966 -45.368 -57.007  0.00  0.00    +0.000 OA
ATOM     13  C   UNL     1     -64.979 -46.623 -56.606  0.00  0.00    +0.000 A 
ATOM     14  H   UNL     1     -65.495 -47.932 -53.655  0.00  0.00    +0.000 HD
ENDROOT
BRANCH   1  15
ATOM     15  S   UNL     1     -66.779 -48.670 -55.795  0.00  0.00    +0.000 S 
ATOM     16  O   UNL     1     -67.911 -47.844 -56.342  0.00  0.00    +0.000 OA
BRANCH  15  17
ATOM     17  C   UNL     1     -67.160 -49.096 -54.062  0.00  0.00    +0.000 C 
BRANCH  17  21
ATOM     18  C   UNL     1     -65.704 -53.848 -52.612  0.00  0.00    +0.000 C 
ATOM     19  C   UNL     1     -65.932 -52.429 -52.964  0.00  0.00    +0.000 A 
ATOM     20  C   UNL     1     -66.928 -51.734 -53.611  0.00  0.00    +0.000 A 
ATOM     21  C   UNL     1     -66.515 -50.371 -53.572  0.00  0.00    +0.000 A 
ATOM     22  N   UNL     1     -65.326 -50.274 -52.952  0.00  0.00    +0.000 NA
ATOM     23  O   UNL     1     -64.970 -51.554 -52.573  0.00  0.00    +0.000 OA
ENDBRANCH  17  21
ENDBRANCH  15  17
ENDBRANCH   1  15
BRANCH  13  24
ATOM     24  C   UNL     1     -65.533 -46.394 -57.995  0.00  0.00    +0.000 C 
ATOM     25  O   UNL     1     -66.236 -45.411 -58.226  0.00  0.00    +0.000 OA
BRANCH  24  26
ATOM     26  C   UNL     1     -65.282 -47.415 -59.105  0.00  0.00    +0.000 C 
ATOM     27  C   UNL     1     -66.571 -47.786 -59.835  0.00  0.00    +0.000 C 
ATOM     28  C   UNL     1     -64.228 -46.928 -60.103  0.00  0.00    +0.000 C 
ENDBRANCH  24  26
ENDBRANCH  13  24
TORSDOF 5
