REMARK VINA RESULT:    -6.238      3.156      5.709
REMARK INTER + INTRA:          -9.003
REMARK INTER:                  -7.934
REMARK INTRA:                  -1.069
REMARK UNBOUND:                -0.942
REMARK  Name = 
REMARK  8 active torsions:
REMARK  status: ('A' for Active; 'I' for Inactive)
REMARK    1  A    between atoms: C_1  and  C_2
REMARK    2  A    between atoms: C_4  and  C_5
REMARK    3  A    between atoms: C_5  and  S_6
REMARK    4  A    between atoms: S_6  and  C_8
REMARK    5  A    between atoms: C_20  and  C_21
REMARK    6  A    between atoms: C_21  and  C_23
REMARK    7  A    between atoms: C_23  and  C_24
REMARK    8  A    between atoms: C_23  and  C_25
REMARK                            x       y       z     vdW  Elec       q    Type
REMARK                         _______ _______ _______ _____ _____    ______ ____
ROOT
ATOM      1  C   UNL     1     -57.768 -40.653 -63.195  0.00  0.00    +0.000 A 
ATOM      2  N   UNL     1     -57.230 -39.441 -62.767  0.00  0.00    +0.000 N 
ATOM      3  C   UNL     1     -56.074 -38.893 -63.362  0.00  0.00    +0.000 A 
ATOM      4  C   UNL     1     -55.740 -37.530 -63.230  0.00  0.00    +0.000 A 
ATOM      5 CL   UNL     1     -56.825 -36.425 -62.464  0.00  0.00    +0.000 Cl
ATOM      6  C   UNL     1     -54.540 -37.032 -63.738  0.00  0.00    +0.000 A 
ATOM      7  C   UNL     1     -53.656 -37.894 -64.390  0.00  0.00    +0.000 A 
ATOM      8  C   UNL     1     -53.977 -39.249 -64.544  0.00  0.00    +0.000 A 
ATOM      9 CL   UNL     1     -52.838 -40.200 -65.425  0.00  0.00    +0.000 Cl
ATOM     10  C   UNL     1     -55.179 -39.748 -64.019  0.00  0.00    +0.000 A 
ATOM     11  C   UNL     1     -55.585 -41.176 -64.052  0.00  0.00    +0.000 A 
ATOM     12  O   UNL     1     -54.720 -42.043 -64.081  0.00  0.00    +0.000 OA
ATOM     13  C   UNL     1     -57.063 -41.534 -63.960  0.00  0.00    +0.000 A 
ATOM     14  H   UNL     1     -57.940 -38.758 -62.472  0.00  0.00    +0.000 HD
ENDROOT
BRANCH   1  15
ATOM     15  S   UNL     1     -59.562 -40.756 -62.807  0.00  0.00    +0.000 S 
ATOM     16  O   UNL     1     -59.817 -39.530 -61.974  0.00  0.00    +0.000 OA
BRANCH  15  17
ATOM     17  C   UNL     1     -59.654 -42.212 -61.687  0.00  0.00    +0.000 C 
BRANCH  17  21
ATOM     18  C   UNL     1     -55.835 -42.360 -58.205  0.00  0.00    +0.000 C 
ATOM     19  C   UNL     1     -57.040 -42.229 -59.051  0.00  0.00    +0.000 A 
ATOM     20  C   UNL     1     -57.316 -42.395 -60.388  0.00  0.00    +0.000 A 
ATOM     21  C   UNL     1     -58.712 -42.148 -60.511  0.00  0.00    +0.000 A 
ATOM     22  N   UNL     1     -59.226 -41.820 -59.313  0.00  0.00    +0.000 NA
ATOM     23  O   UNL     1     -58.184 -41.878 -58.408  0.00  0.00    +0.000 OA
ENDBRANCH  17  21
ENDBRANCH  15  17
ENDBRANCH   1  15
BRANCH  13  24
ATOM     24  C   UNL     1     -57.467 -42.769 -64.739  0.00  0.00    +0.000 C 
ATOM     25  O   UNL     1     -57.458 -43.876 -64.185  0.00  0.00    +0.000 OA
BRANCH  24  26
ATOM     26  C   UNL     1     -57.743 -42.731 -66.230  0.00  0.00    +0.000 C 
ATOM     27  C   UNL     1     -57.842 -44.146 -66.769  0.00  0.00    +0.000 C 
ATOM     28  C   UNL     1     -58.957 -41.868 -66.556  0.00  0.00    +0.000 C 
ENDBRANCH  24  26
ENDBRANCH  13  24
TORSDOF 5
