REMARK VINA RESULT:    -6.961      0.000      0.000
REMARK INTER + INTRA:         -10.234
REMARK INTER:                  -8.996
REMARK INTRA:                  -1.238
REMARK UNBOUND:                -1.238
REMARK  Name = 
REMARK  8 active torsions:
REMARK  status: ('A' for Active; 'I' for Inactive)
REMARK    1  A    between atoms: C_1  and  C_2
REMARK    2  A    between atoms: C_4  and  C_5
REMARK    3  A    between atoms: C_5  and  S_6
REMARK    4  A    between atoms: S_6  and  C_8
REMARK    5  A    between atoms: C_20  and  C_21
REMARK    6  A    between atoms: C_21  and  C_23
REMARK    7  A    between atoms: C_23  and  C_24
REMARK    8  A    between atoms: C_23  and  C_25
REMARK                            x       y       z     vdW  Elec       q    Type
REMARK                         _______ _______ _______ _____ _____    ______ ____
ROOT
ATOM      1  C   UNL     1     -55.443 -41.749 -63.018  0.00  0.00    +0.000 A 
ATOM      2  N   UNL     1     -54.764 -42.963 -63.058  0.00  0.00    +0.000 N 
ATOM      3  C   UNL     1     -53.399 -43.034 -63.399  0.00  0.00    +0.000 A 
ATOM      4  C   UNL     1     -52.597 -44.139 -63.054  0.00  0.00    +0.000 A 
ATOM      5 BR   UNL     1     -53.274 -45.531 -61.959  0.00  0.00    +0.000 Br
ATOM      6  C   UNL     1     -51.266 -44.220 -63.473  0.00  0.00    +0.000 A 
ATOM      7  C   UNL     1     -50.716 -43.196 -64.239  0.00  0.00    +0.000 A 
ATOM      8  C   UNL     1     -51.497 -42.080 -64.589  0.00  0.00    +0.000 A 
ATOM      9 CL   UNL     1     -50.685 -40.843 -65.479  0.00  0.00    +0.000 Cl
ATOM     10  C   UNL     1     -52.843 -42.002 -64.172  0.00  0.00    +0.000 A 
ATOM     11  C   UNL     1     -53.759 -40.884 -64.516  0.00  0.00    +0.000 A 
ATOM     12  O   UNL     1     -53.545 -40.197 -65.510  0.00  0.00    +0.000 OA
ATOM     13  C   UNL     1     -54.969 -40.633 -63.621  0.00  0.00    +0.000 A 
ATOM     14  H   UNL     1     -55.092 -43.648 -62.363  0.00  0.00    +0.000 HD
ENDROOT
BRANCH   1  15
ATOM     15  S   UNL     1     -56.887 -41.824 -61.892  0.00  0.00    +0.000 S 
ATOM     16  O   UNL     1     -56.747 -43.161 -61.217  0.00  0.00    +0.000 OA
BRANCH  15  17
ATOM     17  C   UNL     1     -58.307 -41.902 -63.037  0.00  0.00    +0.000 C 
BRANCH  17  21
ATOM     18  C   UNL     1     -57.378 -42.893 -68.032  0.00  0.00    +0.000 C 
ATOM     19  C   UNL     1     -57.588 -42.807 -66.571  0.00  0.00    +0.000 A 
ATOM     20  C   UNL     1     -57.882 -41.793 -65.687  0.00  0.00    +0.000 A 
ATOM     21  C   UNL     1     -57.975 -42.427 -64.414  0.00  0.00    +0.000 A 
ATOM     22  N   UNL     1     -57.727 -43.742 -64.541  0.00  0.00    +0.000 NA
ATOM     23  O   UNL     1     -57.491 -43.973 -65.883  0.00  0.00    +0.000 OA
ENDBRANCH  17  21
ENDBRANCH  15  17
ENDBRANCH   1  15
BRANCH  13  24
ATOM     24  C   UNL     1     -55.440 -39.200 -63.502  0.00  0.00    +0.000 C 
ATOM     25  O   UNL     1     -56.603 -38.906 -63.776  0.00  0.00    +0.000 OA
BRANCH  24  26
ATOM     26  C   UNL     1     -54.460 -38.096 -63.104  0.00  0.00    +0.000 C 
ATOM     27  C   UNL     1     -54.362 -37.013 -64.176  0.00  0.00    +0.000 C 
ATOM     28  C   UNL     1     -54.819 -37.473 -61.752  0.00  0.00    +0.000 C 
ENDBRANCH  24  26
ENDBRANCH  13  24
TORSDOF 5
