REMARK VINA RESULT:    -6.141     15.643     18.611
REMARK INTER + INTRA:          -8.729
REMARK INTER:                  -7.929
REMARK INTRA:                  -0.800
REMARK UNBOUND:                -0.794
REMARK  Name = 
REMARK  8 active torsions:
REMARK  status: ('A' for Active; 'I' for Inactive)
REMARK    1  A    between atoms: C_1  and  C_2
REMARK    2  A    between atoms: C_4  and  C_5
REMARK    3  A    between atoms: C_5  and  S_6
REMARK    4  A    between atoms: S_6  and  C_8
REMARK    5  A    between atoms: C_20  and  C_21
REMARK    6  A    between atoms: C_21  and  C_23
REMARK    7  A    between atoms: C_23  and  C_24
REMARK    8  A    between atoms: C_23  and  C_25
REMARK                            x       y       z     vdW  Elec       q    Type
REMARK                         _______ _______ _______ _____ _____    ______ ____
ROOT
ATOM      1  C   UNL     1     -57.140 -31.661 -60.977  0.00  0.00    +0.000 A 
ATOM      2  N   UNL     1     -55.998 -32.202 -60.393  0.00  0.00    +0.000 N 
ATOM      3  C   UNL     1     -55.202 -33.150 -61.066  0.00  0.00    +0.000 A 
ATOM      4  C   UNL     1     -53.864 -33.395 -60.706  0.00  0.00    +0.000 A 
ATOM      5 BR   UNL     1     -52.999 -32.340 -59.389  0.00  0.00    +0.000 Br
ATOM      6  C   UNL     1     -53.121 -34.396 -61.338  0.00  0.00    +0.000 A 
ATOM      7  C   UNL     1     -53.704 -35.163 -62.343  0.00  0.00    +0.000 A 
ATOM      8  C   UNL     1     -55.038 -34.929 -62.724  0.00  0.00    +0.000 A 
ATOM      9 CL   UNL     1     -55.627 -35.893 -64.029  0.00  0.00    +0.000 Cl
ATOM     10  C   UNL     1     -55.789 -33.923 -62.081  0.00  0.00    +0.000 A 
ATOM     11  C   UNL     1     -57.211 -33.621 -62.386  0.00  0.00    +0.000 A 
ATOM     12  O   UNL     1     -57.929 -34.480 -62.889  0.00  0.00    +0.000 OA
ATOM     13  C   UNL     1     -57.752 -32.236 -62.039  0.00  0.00    +0.000 A 
ATOM     14  H   UNL     1     -55.497 -31.549 -59.774  0.00  0.00    +0.000 HD
ENDROOT
BRANCH   1  15
ATOM     15  S   UNL     1     -57.540 -30.017 -60.274  0.00  0.00    +0.000 S 
ATOM     16  O   UNL     1     -56.563 -29.091 -60.946  0.00  0.00    +0.000 OA
BRANCH  15  17
ATOM     17  C   UNL     1     -57.064 -30.184 -58.520  0.00  0.00    +0.000 C 
BRANCH  17  21
ATOM     18  C   UNL     1     -57.585 -25.429 -56.540  0.00  0.00    +0.000 C 
ATOM     19  C   UNL     1     -57.355 -26.840 -56.922  0.00  0.00    +0.000 A 
ATOM     20  C   UNL     1     -57.677 -27.620 -58.010  0.00  0.00    +0.000 A 
ATOM     21  C   UNL     1     -57.111 -28.897 -57.731  0.00  0.00    +0.000 A 
ATOM     22  N   UNL     1     -56.506 -28.874 -56.531  0.00  0.00    +0.000 NA
ATOM     23  O   UNL     1     -56.657 -27.594 -56.034  0.00  0.00    +0.000 OA
ENDBRANCH  17  21
ENDBRANCH  15  17
ENDBRANCH   1  15
BRANCH  13  24
ATOM     24  C   UNL     1     -58.845 -31.691 -62.931  0.00  0.00    +0.000 C 
ATOM     25  O   UNL     1     -60.023 -31.962 -62.703  0.00  0.00    +0.000 OA
BRANCH  24  26
ATOM     26  C   UNL     1     -58.492 -30.855 -64.162  0.00  0.00    +0.000 C 
ATOM     27  C   UNL     1     -59.408 -31.169 -65.342  0.00  0.00    +0.000 C 
ATOM     28  C   UNL     1     -58.513 -29.354 -63.859  0.00  0.00    +0.000 C 
ENDBRANCH  24  26
ENDBRANCH  13  24
TORSDOF 5
