REMARK VINA RESULT:    -5.666     10.430     14.596
REMARK INTER + INTRA:          -8.232
REMARK INTER:                  -7.426
REMARK INTRA:                  -0.806
REMARK UNBOUND:                -0.910
REMARK  Name = 
REMARK  6 active torsions:
REMARK  status: ('A' for Active; 'I' for Inactive)
REMARK    1  A    between atoms: C_1  and  C_2
REMARK    2  A    between atoms: C_4  and  C_5
REMARK    3  A    between atoms: C_5  and  S_6
REMARK    4  A    between atoms: S_6  and  C_8
REMARK    5  A    between atoms: C_20  and  C_21
REMARK    6  A    between atoms: C_21  and  C_23
REMARK                            x       y       z     vdW  Elec       q    Type
REMARK                         _______ _______ _______ _____ _____    ______ ____
ROOT
ATOM      1  C   UNL     1     -56.945 -41.911 -62.327  0.00  0.00    +0.000 A 
ATOM      2  N   UNL     1     -55.705 -42.568 -62.206  0.00  0.00    +0.000 N 
ATOM      3  C   UNL     1     -55.303 -43.131 -60.963  0.00  0.00    +0.000 A 
ATOM      4  C   UNL     1     -54.300 -44.113 -60.854  0.00  0.00    +0.000 A 
ATOM      5 BR   UNL     1     -53.526 -44.898 -62.397  0.00  0.00    +0.000 Br
ATOM      6  C   UNL     1     -53.857 -44.560 -59.601  0.00  0.00    +0.000 A 
ATOM      7  C   UNL     1     -54.438 -44.044 -58.437  0.00  0.00    +0.000 A 
ATOM      8  C   UNL     1     -55.435 -43.072 -58.520  0.00  0.00    +0.000 A 
ATOM      9 CL   UNL     1     -56.137 -42.554 -57.030  0.00  0.00    +0.000 Cl
ATOM     10  C   UNL     1     -55.844 -42.607 -59.779  0.00  0.00    +0.000 A 
ATOM     11  C   UNL     1     -56.827 -41.522 -59.964  0.00  0.00    +0.000 A 
ATOM     12  O   UNL     1     -56.953 -40.619 -59.146  0.00  0.00    +0.000 OA
ATOM     13  C   UNL     1     -57.627 -41.506 -61.233  0.00  0.00    +0.000 A 
ATOM     14  H   UNL     1     -55.501 -43.168 -63.017  0.00  0.00    +0.000 HD
ENDROOT
BRANCH   1  15
ATOM     15  S   UNL     1     -57.669 -42.091 -63.978  0.00  0.00    +0.000 S 
ATOM     16  O   UNL     1     -58.457 -43.370 -63.899  0.00  0.00    +0.000 OA
BRANCH  15  17
ATOM     17  C   UNL     1     -56.346 -42.342 -65.198  0.00  0.00    +0.000 C 
BRANCH  17  21
ATOM     18  C   UNL     1     -56.337 -41.967 -70.304  0.00  0.00    +0.000 C 
ATOM     19  C   UNL     1     -56.531 -42.165 -68.856  0.00  0.00    +0.000 A 
ATOM     20  C   UNL     1     -55.752 -41.970 -67.740  0.00  0.00    +0.000 A 
ATOM     21  C   UNL     1     -56.602 -42.278 -66.655  0.00  0.00    +0.000 A 
ATOM     22  N   UNL     1     -57.799 -42.701 -67.099  0.00  0.00    +0.000 NA
ATOM     23  O   UNL     1     -57.749 -42.627 -68.475  0.00  0.00    +0.000 OA
ENDBRANCH  17  21
ENDBRANCH  15  17
ENDBRANCH   1  15
BRANCH  13  24
ATOM     24  C   UNL     1     -59.074 -41.212 -61.026  0.00  0.00    +0.000 C 
ATOM     25  O   UNL     1     -59.777 -41.979 -60.391  0.00  0.00    +0.000 OA
BRANCH  24  26
ATOM     26  C   UNL     1     -59.628 -39.955 -61.563  0.00  0.00    +0.000 C 
ATOM     27  C   UNL     1     -58.730 -38.754 -61.715  0.00  0.00    +0.000 C 
ATOM     28  C   UNL     1     -59.815 -38.743 -60.682  0.00  0.00    +0.000 C 
ENDBRANCH  24  26
ENDBRANCH  13  24
TORSDOF 5
