REMARK VINA RESULT:    -5.513      4.224      6.319
REMARK INTER + INTRA:          -7.772
REMARK INTER:                  -7.127
REMARK INTRA:                  -0.646
REMARK UNBOUND:                -0.971
REMARK  Name = 
REMARK  6 active torsions:
REMARK  status: ('A' for Active; 'I' for Inactive)
REMARK    1  A    between atoms: C_1  and  C_2
REMARK    2  A    between atoms: C_2  and  C_4
REMARK    3  A    between atoms: C_5  and  S_6
REMARK    4  A    between atoms: S_6  and  C_8
REMARK    5  A    between atoms: C_8  and  C_9
REMARK    6  A    between atoms: C_11  and  C_12
REMARK                            x       y       z     vdW  Elec       q    Type
REMARK                         _______ _______ _______ _____ _____    ______ ____
ROOT
ATOM      1  C   UNL     1     -56.946 -41.702 -63.936  0.00  0.00    +0.000 A 
ATOM      2  C   UNL     1     -57.796 -40.901 -63.256  0.00  0.00    +0.000 A 
ATOM      3  N   UNL     1     -57.535 -39.572 -62.986  0.00  0.00    +0.000 N 
ATOM      4  C   UNL     1     -56.310 -38.955 -63.296  0.00  0.00    +0.000 A 
ATOM      5  C   UNL     1     -56.104 -37.589 -63.023  0.00  0.00    +0.000 A 
ATOM      6 BR   UNL     1     -57.445 -36.548 -62.172  0.00  0.00    +0.000 Br
ATOM      7  C   UNL     1     -54.912 -36.959 -63.374  0.00  0.00    +0.000 A 
ATOM      8  C   UNL     1     -53.911 -37.690 -64.007  0.00  0.00    +0.000 A 
ATOM      9  C   UNL     1     -54.102 -39.043 -64.314  0.00  0.00    +0.000 A 
ATOM     10 CL   UNL     1     -52.768 -39.814 -65.097  0.00  0.00    +0.000 Cl
ATOM     11  C   UNL     1     -55.318 -39.675 -63.983  0.00  0.00    +0.000 A 
ATOM     12  C   UNL     1     -55.613 -41.102 -64.298  0.00  0.00    +0.000 A 
ATOM     13  O   UNL     1     -54.755 -41.805 -64.818  0.00  0.00    +0.000 OA
ATOM     14  H   UNL     1     -58.044 -39.171 -62.198  0.00  0.00    +0.000 HD
ENDROOT
BRANCH   1  16
ATOM     15  C   UNL     1     -57.779 -43.430 -65.687  0.00  0.00    +0.000 C 
ATOM     16  C   UNL     1     -57.232 -43.133 -64.308  0.00  0.00    +0.000 C 
ATOM     17  O   UNL     1     -57.063 -44.057 -63.514  0.00  0.00    +0.000 OA
ENDBRANCH   1  16
BRANCH   2  18
ATOM     18  S   UNL     1     -59.313 -41.562 -62.488  0.00  0.00    +0.000 S 
ATOM     19  O   UNL     1     -58.888 -41.851 -61.074  0.00  0.00    +0.000 OA
BRANCH  18  20
ATOM     20  C   UNL     1     -60.302 -40.027 -62.414  0.00  0.00    +0.000 C 
BRANCH  20  21
ATOM     21  C   UNL     1     -61.765 -40.316 -62.342  0.00  0.00    +0.000 A 
ATOM     22  C   UNL     1     -62.475 -41.117 -61.408  0.00  0.00    +0.000 A 
ATOM     23  C   UNL     1     -63.793 -40.979 -61.767  0.00  0.00    +0.000 A 
ATOM     24  C   UNL     1     -65.067 -41.516 -61.251  0.00  0.00    +0.000 C 
ATOM     25  O   UNL     1     -63.877 -40.147 -62.839  0.00  0.00    +0.000 OA
ATOM     26  N   UNL     1     -62.609 -39.725 -63.198  0.00  0.00    +0.000 NA
ENDBRANCH  20  21
ENDBRANCH  18  20
ENDBRANCH   2  18
TORSDOF 4
