REMARK VINA RESULT:    -6.633      2.957      4.430
REMARK INTER + INTRA:          -9.481
REMARK INTER:                  -8.694
REMARK INTRA:                  -0.787
REMARK UNBOUND:                -0.910
REMARK  Name = 
REMARK  6 active torsions:
REMARK  status: ('A' for Active; 'I' for Inactive)
REMARK    1  A    between atoms: C_1  and  C_2
REMARK    2  A    between atoms: C_4  and  C_5
REMARK    3  A    between atoms: C_5  and  S_6
REMARK    4  A    between atoms: S_6  and  C_8
REMARK    5  A    between atoms: C_20  and  C_21
REMARK    6  A    between atoms: C_21  and  C_23
REMARK                            x       y       z     vdW  Elec       q    Type
REMARK                         _______ _______ _______ _____ _____    ______ ____
ROOT
ATOM      1  C   UNL     1     -55.807 -43.274 -77.416  0.00  0.00    +0.000 A 
ATOM      2  N   UNL     1     -54.502 -43.446 -76.915  0.00  0.00    +0.000 N 
ATOM      3  C   UNL     1     -53.641 -42.329 -76.738  0.00  0.00    +0.000 A 
ATOM      4  C   UNL     1     -52.508 -42.356 -75.903  0.00  0.00    +0.000 A 
ATOM      5 BR   UNL     1     -52.143 -43.854 -74.797  0.00  0.00    +0.000 Br
ATOM      6  C   UNL     1     -51.625 -41.269 -75.843  0.00  0.00    +0.000 A 
ATOM      7  C   UNL     1     -51.885 -40.123 -76.603  0.00  0.00    +0.000 A 
ATOM      8  C   UNL     1     -53.002 -40.072 -77.436  0.00  0.00    +0.000 A 
ATOM      9 CL   UNL     1     -53.272 -38.588 -78.277  0.00  0.00    +0.000 Cl
ATOM     10  C   UNL     1     -53.859 -41.180 -77.515  0.00  0.00    +0.000 A 
ATOM     11  C   UNL     1     -55.014 -41.251 -78.430  0.00  0.00    +0.000 A 
ATOM     12  O   UNL     1     -55.021 -40.665 -79.506  0.00  0.00    +0.000 OA
ATOM     13  C   UNL     1     -56.165 -42.132 -78.044  0.00  0.00    +0.000 A 
ATOM     14  H   UNL     1     -54.469 -44.121 -76.139  0.00  0.00    +0.000 HD
ENDROOT
BRANCH   1  15
ATOM     15  S   UNL     1     -56.976 -44.485 -76.746  0.00  0.00    +0.000 S 
ATOM     16  O   UNL     1     -56.106 -45.483 -76.033  0.00  0.00    +0.000 OA
BRANCH  15  17
ATOM     17  C   UNL     1     -57.796 -45.357 -78.113  0.00  0.00    +0.000 C 
BRANCH  17  21
ATOM     18  C   UNL     1     -61.180 -49.165 -77.597  0.00  0.00    +0.000 C 
ATOM     19  C   UNL     1     -60.057 -48.221 -77.746  0.00  0.00    +0.000 A 
ATOM     20  C   UNL     1     -59.954 -46.864 -77.937  0.00  0.00    +0.000 A 
ATOM     21  C   UNL     1     -58.566 -46.604 -77.896  0.00  0.00    +0.000 A 
ATOM     22  N   UNL     1     -57.875 -47.750 -77.761  0.00  0.00    +0.000 NA
ATOM     23  O   UNL     1     -58.813 -48.757 -77.666  0.00  0.00    +0.000 OA
ENDBRANCH  17  21
ENDBRANCH  15  17
ENDBRANCH   1  15
BRANCH  13  24
ATOM     24  C   UNL     1     -57.500 -41.507 -78.268  0.00  0.00    +0.000 C 
ATOM     25  O   UNL     1     -58.158 -41.789 -79.254  0.00  0.00    +0.000 OA
BRANCH  24  26
ATOM     26  C   UNL     1     -58.030 -40.578 -77.252  0.00  0.00    +0.000 C 
ATOM     27  C   UNL     1     -57.258 -40.356 -75.977  0.00  0.00    +0.000 C 
ATOM     28  C   UNL     1     -58.567 -41.084 -75.934  0.00  0.00    +0.000 C 
ENDBRANCH  24  26
ENDBRANCH  13  24
TORSDOF 5
