REMARK VINA RESULT:    -7.640      2.494      3.862
REMARK INTER + INTRA:         -10.557
REMARK INTER:                  -9.378
REMARK INTRA:                  -1.178
REMARK UNBOUND:                -0.684
REMARK  Name = 
REMARK  8 active torsions:
REMARK  status: ('A' for Active; 'I' for Inactive)
REMARK    1  A    between atoms: C_1  and  C_2
REMARK    2  A    between atoms: C_4  and  C_5
REMARK    3  A    between atoms: C_5  and  S_6
REMARK    4  A    between atoms: S_6  and  C_8
REMARK    5  A    between atoms: C_20  and  C_21
REMARK    6  A    between atoms: C_21  and  C_23
REMARK    7  A    between atoms: C_23  and  C_24
REMARK    8  A    between atoms: C_23  and  C_25
REMARK                            x       y       z     vdW  Elec       q    Type
REMARK                         _______ _______ _______ _____ _____    ______ ____
ROOT
ATOM      1  C   UNL     1     -55.582 -41.548 -63.286  0.00  0.00    +0.000 A 
ATOM      2  N   UNL     1     -54.259 -41.216 -63.563  0.00  0.00    +0.000 N 
ATOM      3  C   UNL     1     -53.263 -42.202 -63.703  0.00  0.00    +0.000 A 
ATOM      4  C   UNL     1     -52.052 -41.954 -64.375  0.00  0.00    +0.000 A 
ATOM      5 BR   UNL     1     -51.757 -40.313 -65.280  0.00  0.00    +0.000 Br
ATOM      6  C   UNL     1     -51.048 -42.926 -64.431  0.00  0.00    +0.000 A 
ATOM      7  C   UNL     1     -51.243 -44.161 -63.820  0.00  0.00    +0.000 A 
ATOM      8  C   UNL     1     -52.450 -44.432 -63.149  0.00  0.00    +0.000 A 
ATOM      9 CL   UNL     1     -52.604 -46.022 -62.493  0.00  0.00    +0.000 Cl
ATOM     10  C   UNL     1     -53.459 -43.449 -63.087  0.00  0.00    +0.000 A 
ATOM     11  C   UNL     1     -54.752 -43.625 -62.377  0.00  0.00    +0.000 A 
ATOM     12  O   UNL     1     -54.846 -44.439 -61.463  0.00  0.00    +0.000 OA
ATOM     13  C   UNL     1     -55.937 -42.759 -62.795  0.00  0.00    +0.000 A 
ATOM     14  H   UNL     1     -54.154 -40.381 -64.156  0.00  0.00    +0.000 HD
ENDROOT
BRANCH   1  15
ATOM     15  S   UNL     1     -56.737 -40.250 -63.868  0.00  0.00    +0.000 S 
ATOM     16  O   UNL     1     -57.569 -40.949 -64.908  0.00  0.00    +0.000 OA
BRANCH  15  17
ATOM     17  C   UNL     1     -55.639 -39.059 -64.709  0.00  0.00    +0.000 C 
BRANCH  17  21
ATOM     18  C   UNL     1     -54.629 -34.515 -62.444  0.00  0.00    +0.000 C 
ATOM     19  C   UNL     1     -54.822 -35.899 -62.929  0.00  0.00    +0.000 A 
ATOM     20  C   UNL     1     -55.507 -36.480 -63.972  0.00  0.00    +0.000 A 
ATOM     21  C   UNL     1     -55.233 -37.874 -63.865  0.00  0.00    +0.000 A 
ATOM     22  N   UNL     1     -54.445 -38.102 -62.800  0.00  0.00    +0.000 NA
ATOM     23  O   UNL     1     -54.190 -36.873 -62.224  0.00  0.00    +0.000 OA
ENDBRANCH  17  21
ENDBRANCH  15  17
ENDBRANCH   1  15
BRANCH  13  24
ATOM     24  C   UNL     1     -57.312 -43.372 -62.646  0.00  0.00    +0.000 C 
ATOM     25  O   UNL     1     -57.729 -44.169 -63.485  0.00  0.00    +0.000 OA
BRANCH  24  26
ATOM     26  C   UNL     1     -58.222 -42.956 -61.489  0.00  0.00    +0.000 C 
ATOM     27  C   UNL     1     -57.453 -42.201 -60.408  0.00  0.00    +0.000 C 
ATOM     28  C   UNL     1     -59.415 -42.126 -61.970  0.00  0.00    +0.000 C 
ENDBRANCH  24  26
ENDBRANCH  13  24
TORSDOF 5
