REMARK VINA RESULT:    -6.768     11.984     14.827
REMARK INTER + INTRA:         -10.093
REMARK INTER:                  -9.185
REMARK INTRA:                  -0.909
REMARK UNBOUND:                -1.347
REMARK  Name = 
REMARK  6 active torsions:
REMARK  status: ('A' for Active; 'I' for Inactive)
REMARK    1  A    between atoms: C_1  and  C_2
REMARK    2  A    between atoms: C_2  and  C_4
REMARK    3  A    between atoms: C_5  and  S_6
REMARK    4  A    between atoms: S_6  and  C_8
REMARK    5  A    between atoms: C_8  and  C_9
REMARK    6  A    between atoms: C_13  and  C_14
REMARK                            x       y       z     vdW  Elec       q    Type
REMARK                         _______ _______ _______ _____ _____    ______ ____
ROOT
ATOM      1  C   UNL     1     -57.297 -41.774 -76.875  0.00  0.00    +0.000 A 
ATOM      2  C   UNL     1     -56.009 -41.777 -77.292  0.00  0.00    +0.000 A 
ATOM      3  N   UNL     1     -55.647 -41.652 -78.622  0.00  0.00    +0.000 N 
ATOM      4  C   UNL     1     -56.584 -41.648 -79.672  0.00  0.00    +0.000 A 
ATOM      5  C   UNL     1     -56.174 -41.522 -81.011  0.00  0.00    +0.000 A 
ATOM      6 BR   UNL     1     -54.331 -41.439 -81.465  0.00  0.00    +0.000 Br
ATOM      7  C   UNL     1     -57.105 -41.452 -82.048  0.00  0.00    +0.000 A 
ATOM      8  C   UNL     1     -58.464 -41.505 -81.758  0.00  0.00    +0.000 A 
ATOM      9  C   UNL     1     -58.901 -41.614 -80.435  0.00  0.00    +0.000 A 
ATOM     10 CL   UNL     1     -60.619 -41.681 -80.234  0.00  0.00    +0.000 Cl
ATOM     11  C   UNL     1     -57.961 -41.660 -79.383  0.00  0.00    +0.000 A 
ATOM     12  C   UNL     1     -58.347 -41.734 -77.951  0.00  0.00    +0.000 A 
ATOM     13  O   UNL     1     -59.533 -41.794 -77.646  0.00  0.00    +0.000 OA
ATOM     14  H   UNL     1     -54.711 -41.983 -78.862  0.00  0.00    +0.000 HD
ENDROOT
BRANCH   1  16
ATOM     15  C   UNL     1     -57.807 -40.529 -74.649  0.00  0.00    +0.000 C 
ATOM     16  C   UNL     1     -57.736 -41.825 -75.432  0.00  0.00    +0.000 C 
ATOM     17  O   UNL     1     -58.004 -42.882 -74.866  0.00  0.00    +0.000 OA
ENDBRANCH   1  16
BRANCH   2  18
ATOM     18  S   UNL     1     -54.646 -42.130 -76.126  0.00  0.00    +0.000 S 
ATOM     19  O   UNL     1     -54.689 -43.628 -75.983  0.00  0.00    +0.000 OA
BRANCH  18  20
ATOM     20  C   UNL     1     -53.195 -41.765 -77.185  0.00  0.00    +0.000 C 
BRANCH  20  21
ATOM     21  C   UNL     1     -52.664 -40.351 -76.998  0.00  0.00    +0.000 A 
ATOM     22  C   UNL     1     -53.313 -39.262 -77.600  0.00  0.00    +0.000 A 
ATOM     23  C   UNL     1     -52.822 -37.961 -77.441  0.00  0.00    +0.000 A 
ATOM     24  C   UNL     1     -51.671 -37.726 -76.688  0.00  0.00    +0.000 A 
ATOM     25  C   UNL     1     -50.999 -38.794 -76.098  0.00  0.00    +0.000 A 
ATOM     26  C   UNL     1     -51.491 -40.104 -76.258  0.00  0.00    +0.000 A 
BRANCH  25  27
ATOM     27  C   UNL     1     -49.801 -38.561 -75.336  0.00  0.00    +0.000 C 
ATOM     28  N   UNL     1     -48.842 -38.377 -74.701  0.00  0.00    +0.000 NA
ENDBRANCH  25  27
ENDBRANCH  20  21
ENDBRANCH  18  20
ENDBRANCH   2  18
TORSDOF 5
