MODEL 1
REMARK VINA RESULT:    -6.638      0.000      0.000
REMARK INTER + INTRA:          -9.031
REMARK INTER:                  -8.190
REMARK INTRA:                  -0.841
REMARK UNBOUND:                -0.841
REMARK  Name = 
REMARK  6 active torsions:
REMARK  status: ('A' for Active; 'I' for Inactive)
REMARK    1  A    between atoms: C_1  and  C_2
REMARK    2  A    between atoms: C_2  and  C_4
REMARK    3  A    between atoms: C_5  and  S_6
REMARK    4  A    between atoms: S_6  and  C_8
REMARK    5  A    between atoms: C_8  and  C_9
REMARK    6  A    between atoms: C_11  and  C_12
REMARK                            x       y       z     vdW  Elec       q    Type
REMARK                         _______ _______ _______ _____ _____    ______ ____
ROOT
ATOM      1  C   UNL     1     -56.905 -40.821 -61.864  0.00  0.00    +0.000 A 
ATOM      2  C   UNL     1     -55.934 -41.573 -62.428  0.00  0.00    +0.000 A 
ATOM      3  N   UNL     1     -54.892 -41.046 -63.167  0.00  0.00    +0.000 N 
ATOM      4  C   UNL     1     -54.824 -39.691 -63.525  0.00  0.00    +0.000 A 
ATOM      5  C   UNL     1     -53.763 -39.209 -64.317  0.00  0.00    +0.000 A 
ATOM      6 BR   UNL     1     -52.430 -40.386 -64.984  0.00  0.00    +0.000 Br
ATOM      7  C   UNL     1     -53.662 -37.859 -64.635  0.00  0.00    +0.000 A 
ATOM      8  C   UNL     1     -54.617 -36.966 -64.155  0.00  0.00    +0.000 A 
ATOM      9  C   UNL     1     -55.667 -37.417 -63.346  0.00  0.00    +0.000 A 
ATOM     10 CL   UNL     1     -56.778 -36.192 -62.838  0.00  0.00    +0.000 Cl
ATOM     11  C   UNL     1     -55.764 -38.782 -63.010  0.00  0.00    +0.000 A 
ATOM     12  C   UNL     1     -56.845 -39.341 -62.146  0.00  0.00    +0.000 A 
ATOM     13  O   UNL     1     -57.713 -38.602 -61.697  0.00  0.00    +0.000 OA
ATOM     14  H   UNL     1     -54.451 -41.694 -63.823  0.00  0.00    +0.000 HD
ENDROOT
BRANCH   1  16
ATOM     15  C   UNL     1     -59.351 -41.701 -61.691  0.00  0.00    +0.000 C 
ATOM     16  C   UNL     1     -58.031 -41.372 -61.028  0.00  0.00    +0.000 C 
ATOM     17  O   UNL     1     -57.907 -41.562 -59.821  0.00  0.00    +0.000 OA
ENDBRANCH   1  16
BRANCH   2  18
ATOM     18  S   UNL     1     -56.004 -43.395 -62.396  0.00  0.00    +0.000 S 
ATOM     19  O   UNL     1     -55.654 -43.781 -63.809  0.00  0.00    +0.000 OA
BRANCH  18  20
ATOM     20  C   UNL     1     -54.509 -43.729 -61.397  0.00  0.00    +0.000 C 
BRANCH  20  21
ATOM     21  C   UNL     1     -53.401 -44.313 -62.210  0.00  0.00    +0.000 A 
ATOM     22  C   UNL     1     -52.352 -43.672 -62.920  0.00  0.00    +0.000 A 
ATOM     23  C   UNL     1     -51.633 -44.700 -63.478  0.00  0.00    +0.000 A 
ATOM     24  C   UNL     1     -50.464 -44.778 -64.374  0.00  0.00    +0.000 C 
ATOM     25  O   UNL     1     -52.177 -45.883 -63.091  0.00  0.00    +0.000 OA
ATOM     26  N   UNL     1     -53.280 -45.647 -62.291  0.00  0.00    +0.000 NA
ENDBRANCH  20  21
ENDBRANCH  18  20
ENDBRANCH   2  18
TORSDOF 4
ENDMDL
MODEL 2
REMARK VINA RESULT:    -6.598     14.604     15.816
REMARK INTER + INTRA:          -8.982
REMARK INTER:                  -8.151
REMARK INTRA:                  -0.831
REMARK UNBOUND:                -0.841
REMARK  Name = 
REMARK  6 active torsions:
REMARK  status: ('A' for Active; 'I' for Inactive)
REMARK    1  A    between atoms: C_1  and  C_2
REMARK    2  A    between atoms: C_2  and  C_4
REMARK    3  A    between atoms: C_5  and  S_6
REMARK    4  A    between atoms: S_6  and  C_8
REMARK    5  A    between atoms: C_8  and  C_9
REMARK    6  A    between atoms: C_11  and  C_12
REMARK                            x       y       z     vdW  Elec       q    Type
REMARK                         _______ _______ _______ _____ _____    ______ ____
ROOT
ATOM      1  C   UNL     1     -56.004 -41.758 -77.546  0.00  0.00    +0.000 A 
ATOM      2  C   UNL     1     -54.678 -41.984 -77.418  0.00  0.00    +0.000 A 
ATOM      3  N   UNL     1     -53.802 -42.023 -78.485  0.00  0.00    +0.000 N 
ATOM      4  C   UNL     1     -54.231 -41.977 -79.821  0.00  0.00    +0.000 A 
ATOM      5  C   UNL     1     -53.302 -42.063 -80.877  0.00  0.00    +0.000 A 
ATOM      6 BR   UNL     1     -51.452 -42.317 -80.532  0.00  0.00    +0.000 Br
ATOM      7  C   UNL     1     -53.713 -41.968 -82.202  0.00  0.00    +0.000 A 
ATOM      8  C   UNL     1     -55.062 -41.773 -82.492  0.00  0.00    +0.000 A 
ATOM      9  C   UNL     1     -56.000 -41.658 -81.458  0.00  0.00    +0.000 A 
ATOM     10 CL   UNL     1     -57.634 -41.430 -81.976  0.00  0.00    +0.000 Cl
ATOM     11  C   UNL     1     -55.584 -41.740 -80.114  0.00  0.00    +0.000 A 
ATOM     12  C   UNL     1     -56.518 -41.619 -78.956  0.00  0.00    +0.000 A 
ATOM     13  O   UNL     1     -57.716 -41.448 -79.152  0.00  0.00    +0.000 OA
ATOM     14  H   UNL     1     -52.938 -42.543 -78.322  0.00  0.00    +0.000 HD
ENDROOT
BRANCH   1  16
ATOM     15  C   UNL     1     -57.360 -40.323 -75.846  0.00  0.00    +0.000 C 
ATOM     16  C   UNL     1     -56.971 -41.679 -76.393  0.00  0.00    +0.000 C 
ATOM     17  O   UNL     1     -57.453 -42.687 -75.883  0.00  0.00    +0.000 OA
ENDBRANCH   1  16
BRANCH   2  18
ATOM     18  S   UNL     1     -53.941 -42.424 -75.808  0.00  0.00    +0.000 S 
ATOM     19  O   UNL     1     -54.351 -43.861 -75.620  0.00  0.00    +0.000 OA
BRANCH  18  20
ATOM     20  C   UNL     1     -52.178 -42.462 -76.292  0.00  0.00    +0.000 C 
BRANCH  20  21
ATOM     21  C   UNL     1     -51.496 -41.154 -76.057  0.00  0.00    +0.000 A 
ATOM     22  C   UNL     1     -50.239 -40.872 -75.462  0.00  0.00    +0.000 A 
ATOM     23  C   UNL     1     -50.130 -39.503 -75.514  0.00  0.00    +0.000 A 
ATOM     24  C   UNL     1     -49.133 -38.527 -75.040  0.00  0.00    +0.000 C 
ATOM     25  O   UNL     1     -51.221 -38.995 -76.142  0.00  0.00    +0.000 OA
ATOM     26  N   UNL     1     -52.077 -40.025 -76.492  0.00  0.00    +0.000 NA
ENDBRANCH  20  21
ENDBRANCH  18  20
ENDBRANCH   2  18
TORSDOF 4
ENDMDL
MODEL 3
REMARK VINA RESULT:    -6.346      3.128      5.419
REMARK INTER + INTRA:          -8.671
REMARK INTER:                  -7.920
REMARK INTRA:                  -0.751
REMARK UNBOUND:                -0.841
REMARK  Name = 
REMARK  6 active torsions:
REMARK  status: ('A' for Active; 'I' for Inactive)
REMARK    1  A    between atoms: C_1  and  C_2
REMARK    2  A    between atoms: C_2  and  C_4
REMARK    3  A    between atoms: C_5  and  S_6
REMARK    4  A    between atoms: S_6  and  C_8
REMARK    5  A    between atoms: C_8  and  C_9
REMARK    6  A    between atoms: C_11  and  C_12
REMARK                            x       y       z     vdW  Elec       q    Type
REMARK                         _______ _______ _______ _____ _____    ______ ____
ROOT
ATOM      1  C   UNL     1     -55.097 -40.989 -63.904  0.00  0.00    +0.000 A 
ATOM      2  C   UNL     1     -55.442 -42.104 -63.222  0.00  0.00    +0.000 A 
ATOM      3  N   UNL     1     -54.552 -43.112 -62.906  0.00  0.00    +0.000 N 
ATOM      4  C   UNL     1     -53.235 -43.143 -63.391  0.00  0.00    +0.000 A 
ATOM      5  C   UNL     1     -52.378 -44.216 -63.075  0.00  0.00    +0.000 A 
ATOM      6 BR   UNL     1     -52.995 -45.688 -62.045  0.00  0.00    +0.000 Br
ATOM      7  C   UNL     1     -51.057 -44.230 -63.510  0.00  0.00    +0.000 A 
ATOM      8  C   UNL     1     -50.569 -43.162 -64.261  0.00  0.00    +0.000 A 
ATOM      9  C   UNL     1     -51.395 -42.073 -64.566  0.00  0.00    +0.000 A 
ATOM     10 CL   UNL     1     -50.649 -40.833 -65.513  0.00  0.00    +0.000 Cl
ATOM     11  C   UNL     1     -52.729 -42.050 -64.114  0.00  0.00    +0.000 A 
ATOM     12  C   UNL     1     -53.670 -40.924 -64.388  0.00  0.00    +0.000 A 
ATOM     13  O   UNL     1     -53.295 -39.959 -65.044  0.00  0.00    +0.000 OA
ATOM     14  H   UNL     1     -54.973 -44.026 -62.728  0.00  0.00    +0.000 HD
ENDROOT
BRANCH   1  16
ATOM     15  C   UNL     1     -56.030 -38.615 -63.376  0.00  0.00    +0.000 C 
ATOM     16  C   UNL     1     -56.043 -39.863 -64.231  0.00  0.00    +0.000 C 
ATOM     17  O   UNL     1     -56.826 -39.930 -65.175  0.00  0.00    +0.000 OA
ENDBRANCH   1  16
BRANCH   2  18
ATOM     18  S   UNL     1     -57.178 -42.454 -62.790  0.00  0.00    +0.000 S 
ATOM     19  O   UNL     1     -57.127 -43.861 -62.257  0.00  0.00    +0.000 OA
BRANCH  18  20
ATOM     20  C   UNL     1     -57.344 -41.366 -61.330  0.00  0.00    +0.000 C 
BRANCH  20  21
ATOM     21  C   UNL     1     -56.950 -42.052 -60.063  0.00  0.00    +0.000 A 
ATOM     22  C   UNL     1     -55.665 -42.408 -59.576  0.00  0.00    +0.000 A 
ATOM     23  C   UNL     1     -55.907 -43.011 -58.366  0.00  0.00    +0.000 A 
ATOM     24  C   UNL     1     -55.064 -43.665 -57.349  0.00  0.00    +0.000 C 
ATOM     25  O   UNL     1     -57.242 -42.978 -58.113  0.00  0.00    +0.000 OA
ATOM     26  N   UNL     1     -57.899 -42.372 -59.169  0.00  0.00    +0.000 NA
ENDBRANCH  20  21
ENDBRANCH  18  20
ENDBRANCH   2  18
TORSDOF 4
ENDMDL
MODEL 4
REMARK VINA RESULT:    -6.212     14.807     16.312
REMARK INTER + INTRA:          -8.506
REMARK INTER:                  -7.855
REMARK INTRA:                  -0.651
REMARK UNBOUND:                -0.841
REMARK  Name = 
REMARK  6 active torsions:
REMARK  status: ('A' for Active; 'I' for Inactive)
REMARK    1  A    between atoms: C_1  and  C_2
REMARK    2  A    between atoms: C_2  and  C_4
REMARK    3  A    between atoms: C_5  and  S_6
REMARK    4  A    between atoms: S_6  and  C_8
REMARK    5  A    between atoms: C_8  and  C_9
REMARK    6  A    between atoms: C_11  and  C_12
REMARK                            x       y       z     vdW  Elec       q    Type
REMARK                         _______ _______ _______ _____ _____    ______ ____
ROOT
ATOM      1  C   UNL     1     -53.303 -41.584 -77.968  0.00  0.00    +0.000 A 
ATOM      2  C   UNL     1     -54.633 -41.408 -78.131  0.00  0.00    +0.000 A 
ATOM      3  N   UNL     1     -55.284 -41.575 -79.338  0.00  0.00    +0.000 N 
ATOM      4  C   UNL     1     -54.601 -41.801 -80.544  0.00  0.00    +0.000 A 
ATOM      5  C   UNL     1     -55.308 -41.922 -81.757  0.00  0.00    +0.000 A 
ATOM      6 BR   UNL     1     -57.194 -41.713 -81.814  0.00  0.00    +0.000 Br
ATOM      7  C   UNL     1     -54.644 -42.196 -82.948  0.00  0.00    +0.000 A 
ATOM      8  C   UNL     1     -53.261 -42.364 -82.941  0.00  0.00    +0.000 A 
ATOM      9  C   UNL     1     -52.541 -42.273 -81.744  0.00  0.00    +0.000 A 
ATOM     10 CL   UNL     1     -50.832 -42.495 -81.899  0.00  0.00    +0.000 Cl
ATOM     11  C   UNL     1     -53.213 -42.010 -80.534  0.00  0.00    +0.000 A 
ATOM     12  C   UNL     1     -52.520 -41.908 -79.215  0.00  0.00    +0.000 A 
ATOM     13  O   UNL     1     -51.304 -42.047 -79.150  0.00  0.00    +0.000 OA
ATOM     14  H   UNL     1     -56.174 -41.080 -79.426  0.00  0.00    +0.000 HD
ENDROOT
BRANCH   1  16
ATOM     15  C   UNL     1     -52.501 -42.626 -75.718  0.00  0.00    +0.000 C 
ATOM     16  C   UNL     1     -52.579 -41.439 -76.654  0.00  0.00    +0.000 C 
ATOM     17  O   UNL     1     -52.049 -40.382 -76.322  0.00  0.00    +0.000 OA
ENDBRANCH   1  16
BRANCH   2  18
ATOM     18  S   UNL     1     -55.679 -40.768 -76.781  0.00  0.00    +0.000 S 
ATOM     19  O   UNL     1     -56.837 -40.138 -77.508  0.00  0.00    +0.000 OA
BRANCH  18  20
ATOM     20  C   UNL     1     -56.303 -42.353 -76.115  0.00  0.00    +0.000 C 
BRANCH  20  21
ATOM     21  C   UNL     1     -57.036 -42.178 -74.826  0.00  0.00    +0.000 A 
ATOM     22  C   UNL     1     -58.414 -41.939 -74.582  0.00  0.00    +0.000 A 
ATOM     23  C   UNL     1     -58.517 -41.867 -73.214  0.00  0.00    +0.000 A 
ATOM     24  C   UNL     1     -59.617 -41.592 -72.273  0.00  0.00    +0.000 C 
ATOM     25  O   UNL     1     -57.296 -42.096 -72.665  0.00  0.00    +0.000 OA
ATOM     26  N   UNL     1     -56.366 -42.298 -73.669  0.00  0.00    +0.000 NA
ENDBRANCH  20  21
ENDBRANCH  18  20
ENDBRANCH   2  18
TORSDOF 4
ENDMDL
MODEL 5
REMARK VINA RESULT:    -6.011     15.540     16.838
REMARK INTER + INTRA:          -8.258
REMARK INTER:                  -7.281
REMARK INTRA:                  -0.977
REMARK UNBOUND:                -0.841
REMARK  Name = 
REMARK  6 active torsions:
REMARK  status: ('A' for Active; 'I' for Inactive)
REMARK    1  A    between atoms: C_1  and  C_2
REMARK    2  A    between atoms: C_2  and  C_4
REMARK    3  A    between atoms: C_5  and  S_6
REMARK    4  A    between atoms: S_6  and  C_8
REMARK    5  A    between atoms: C_8  and  C_9
REMARK    6  A    between atoms: C_11  and  C_12
REMARK                            x       y       z     vdW  Elec       q    Type
REMARK                         _______ _______ _______ _____ _____    ______ ____
ROOT
ATOM      1  C   UNL     1     -53.347 -41.867 -78.237  0.00  0.00    +0.000 A 
ATOM      2  C   UNL     1     -54.678 -41.683 -78.379  0.00  0.00    +0.000 A 
ATOM      3  N   UNL     1     -55.327 -41.709 -79.597  0.00  0.00    +0.000 N 
ATOM      4  C   UNL     1     -54.644 -41.784 -80.821  0.00  0.00    +0.000 A 
ATOM      5  C   UNL     1     -55.349 -41.764 -82.041  0.00  0.00    +0.000 A 
ATOM      6 BR   UNL     1     -57.237 -41.563 -82.074  0.00  0.00    +0.000 Br
ATOM      7  C   UNL     1     -54.683 -41.888 -83.256  0.00  0.00    +0.000 A 
ATOM      8  C   UNL     1     -53.299 -42.045 -83.268  0.00  0.00    +0.000 A 
ATOM      9  C   UNL     1     -52.579 -42.093 -82.067  0.00  0.00    +0.000 A 
ATOM     10 CL   UNL     1     -50.869 -42.281 -82.247  0.00  0.00    +0.000 Cl
ATOM     11  C   UNL     1     -53.253 -41.982 -80.835  0.00  0.00    +0.000 A 
ATOM     12  C   UNL     1     -52.561 -42.033 -79.513  0.00  0.00    +0.000 A 
ATOM     13  O   UNL     1     -51.345 -42.169 -79.464  0.00  0.00    +0.000 OA
ATOM     14  H   UNL     1     -56.221 -41.214 -79.626  0.00  0.00    +0.000 HD
ENDROOT
BRANCH   1  16
ATOM     15  C   UNL     1     -51.947 -40.609 -76.435  0.00  0.00    +0.000 C 
ATOM     16  C   UNL     1     -52.624 -41.875 -76.915  0.00  0.00    +0.000 C 
ATOM     17  O   UNL     1     -52.569 -42.882 -76.214  0.00  0.00    +0.000 OA
ENDBRANCH   1  16
BRANCH   2  18
ATOM     18  S   UNL     1     -55.728 -41.217 -76.963  0.00  0.00    +0.000 S 
ATOM     19  O   UNL     1     -56.455 -39.994 -77.456  0.00  0.00    +0.000 OA
BRANCH  18  20
ATOM     20  C   UNL     1     -56.939 -42.586 -77.031  0.00  0.00    +0.000 C 
BRANCH  20  21
ATOM     21  C   UNL     1     -56.294 -43.924 -76.878  0.00  0.00    +0.000 A 
ATOM     22  C   UNL     1     -55.619 -44.493 -75.767  0.00  0.00    +0.000 A 
ATOM     23  C   UNL     1     -55.236 -45.740 -76.194  0.00  0.00    +0.000 A 
ATOM     24  C   UNL     1     -54.463 -46.845 -75.600  0.00  0.00    +0.000 C 
ATOM     25  O   UNL     1     -55.692 -45.934 -77.459  0.00  0.00    +0.000 OA
ATOM     26  N   UNL     1     -56.361 -44.803 -77.890  0.00  0.00    +0.000 NA
ENDBRANCH  20  21
ENDBRANCH  18  20
ENDBRANCH   2  18
TORSDOF 4
ENDMDL
MODEL 6
REMARK VINA RESULT:    -5.995     14.452     15.734
REMARK INTER + INTRA:          -8.238
REMARK INTER:                  -7.598
REMARK INTRA:                  -0.640
REMARK UNBOUND:                -0.841
REMARK  Name = 
REMARK  6 active torsions:
REMARK  status: ('A' for Active; 'I' for Inactive)
REMARK    1  A    between atoms: C_1  and  C_2
REMARK    2  A    between atoms: C_2  and  C_4
REMARK    3  A    between atoms: C_5  and  S_6
REMARK    4  A    between atoms: S_6  and  C_8
REMARK    5  A    between atoms: C_8  and  C_9
REMARK    6  A    between atoms: C_11  and  C_12
REMARK                            x       y       z     vdW  Elec       q    Type
REMARK                         _______ _______ _______ _____ _____    ______ ____
ROOT
ATOM      1  C   UNL     1     -55.296 -42.853 -77.045  0.00  0.00    +0.000 A 
ATOM      2  C   UNL     1     -54.657 -42.245 -78.069  0.00  0.00    +0.000 A 
ATOM      3  N   UNL     1     -55.268 -41.913 -79.262  0.00  0.00    +0.000 N 
ATOM      4  C   UNL     1     -56.577 -42.308 -79.581  0.00  0.00    +0.000 A 
ATOM      5  C   UNL     1     -57.142 -41.981 -80.829  0.00  0.00    +0.000 A 
ATOM      6 BR   UNL     1     -56.132 -41.060 -82.148  0.00  0.00    +0.000 Br
ATOM      7  C   UNL     1     -58.455 -42.325 -81.134  0.00  0.00    +0.000 A 
ATOM      8  C   UNL     1     -59.228 -42.994 -80.186  0.00  0.00    +0.000 A 
ATOM      9  C   UNL     1     -58.696 -43.307 -78.929  0.00  0.00    +0.000 A 
ATOM     10 CL   UNL     1     -59.773 -44.146 -77.868  0.00  0.00    +0.000 Cl
ATOM     11  C   UNL     1     -57.371 -42.946 -78.614  0.00  0.00    +0.000 A 
ATOM     12  C   UNL     1     -56.733 -43.235 -77.295  0.00  0.00    +0.000 A 
ATOM     13  O   UNL     1     -57.366 -43.821 -76.424  0.00  0.00    +0.000 OA
ATOM     14  H   UNL     1     -54.639 -41.804 -80.060  0.00  0.00    +0.000 HD
ENDROOT
BRANCH   1  16
ATOM     15  C   UNL     1     -53.963 -44.530 -75.562  0.00  0.00    +0.000 C 
ATOM     16  C   UNL     1     -54.657 -43.195 -75.724  0.00  0.00    +0.000 C 
ATOM     17  O   UNL     1     -54.683 -42.418 -74.773  0.00  0.00    +0.000 OA
ENDBRANCH   1  16
BRANCH   2  18
ATOM     18  S   UNL     1     -52.858 -41.949 -78.023  0.00  0.00    +0.000 S 
ATOM     19  O   UNL     1     -52.512 -41.690 -79.466  0.00  0.00    +0.000 OA
BRANCH  18  20
ATOM     20  C   UNL     1     -52.850 -40.315 -77.201  0.00  0.00    +0.000 C 
BRANCH  20  21
ATOM     21  C   UNL     1     -51.599 -40.078 -76.421  0.00  0.00    +0.000 A 
ATOM     22  C   UNL     1     -50.990 -38.862 -76.015  0.00  0.00    +0.000 A 
ATOM     23  C   UNL     1     -49.866 -39.249 -75.327  0.00  0.00    +0.000 A 
ATOM     24  C   UNL     1     -48.751 -38.533 -74.681  0.00  0.00    +0.000 C 
ATOM     25  O   UNL     1     -49.823 -40.606 -75.275  0.00  0.00    +0.000 OA
ATOM     26  N   UNL     1     -50.909 -41.130 -75.952  0.00  0.00    +0.000 NA
ENDBRANCH  20  21
ENDBRANCH  18  20
ENDBRANCH   2  18
TORSDOF 4
ENDMDL
MODEL 7
REMARK VINA RESULT:    -5.967      2.165      2.440
REMARK INTER + INTRA:          -8.204
REMARK INTER:                  -7.358
REMARK INTRA:                  -0.846
REMARK UNBOUND:                -0.841
REMARK  Name = 
REMARK  6 active torsions:
REMARK  status: ('A' for Active; 'I' for Inactive)
REMARK    1  A    between atoms: C_1  and  C_2
REMARK    2  A    between atoms: C_2  and  C_4
REMARK    3  A    between atoms: C_5  and  S_6
REMARK    4  A    between atoms: S_6  and  C_8
REMARK    5  A    between atoms: C_8  and  C_9
REMARK    6  A    between atoms: C_11  and  C_12
REMARK                            x       y       z     vdW  Elec       q    Type
REMARK                         _______ _______ _______ _____ _____    ______ ____
ROOT
ATOM      1  C   UNL     1     -58.072 -39.779 -62.344  0.00  0.00    +0.000 A 
ATOM      2  C   UNL     1     -57.209 -40.695 -62.836  0.00  0.00    +0.000 A 
ATOM      3  N   UNL     1     -55.980 -40.372 -63.379  0.00  0.00    +0.000 N 
ATOM      4  C   UNL     1     -55.573 -39.048 -63.604  0.00  0.00    +0.000 A 
ATOM      5  C   UNL     1     -54.326 -38.771 -64.199  0.00  0.00    +0.000 A 
ATOM      6 BR   UNL     1     -53.189 -40.175 -64.783  0.00  0.00    +0.000 Br
ATOM      7  C   UNL     1     -53.894 -37.461 -64.380  0.00  0.00    +0.000 A 
ATOM      8  C   UNL     1     -54.700 -36.406 -63.956  0.00  0.00    +0.000 A 
ATOM      9  C   UNL     1     -55.931 -36.658 -63.339  0.00  0.00    +0.000 A 
ATOM     10 CL   UNL     1     -56.820 -35.247 -62.879  0.00  0.00    +0.000 Cl
ATOM     11  C   UNL     1     -56.365 -37.984 -63.141  0.00  0.00    +0.000 A 
ATOM     12  C   UNL     1     -57.658 -38.336 -62.483  0.00  0.00    +0.000 A 
ATOM     13  O   UNL     1     -58.407 -37.449 -62.091  0.00  0.00    +0.000 OA
ATOM     14  H   UNL     1     -55.593 -41.064 -64.024  0.00  0.00    +0.000 HD
ENDROOT
BRANCH   1  16
ATOM     15  C   UNL     1     -59.468 -40.418 -60.239  0.00  0.00    +0.000 C 
ATOM     16  C   UNL     1     -59.402 -40.111 -61.719  0.00  0.00    +0.000 C 
ATOM     17  O   UNL     1     -60.438 -40.140 -62.379  0.00  0.00    +0.000 OA
ENDBRANCH   1  16
BRANCH   2  18
ATOM     18  S   UNL     1     -57.668 -42.454 -62.975  0.00  0.00    +0.000 S 
ATOM     19  O   UNL     1     -58.518 -42.494 -64.217  0.00  0.00    +0.000 OA
BRANCH  18  20
ATOM     20  C   UNL     1     -56.043 -43.145 -63.454  0.00  0.00    +0.000 C 
BRANCH  20  21
ATOM     21  C   UNL     1     -55.247 -43.595 -62.273  0.00  0.00    +0.000 A 
ATOM     22  C   UNL     1     -55.470 -43.388 -60.886  0.00  0.00    +0.000 A 
ATOM     23  C   UNL     1     -54.422 -44.025 -60.268  0.00  0.00    +0.000 A 
ATOM     24  C   UNL     1     -53.984 -44.175 -58.869  0.00  0.00    +0.000 C 
ATOM     25  O   UNL     1     -53.646 -44.620 -61.211  0.00  0.00    +0.000 OA
ATOM     26  N   UNL     1     -54.162 -44.361 -62.468  0.00  0.00    +0.000 NA
ENDBRANCH  20  21
ENDBRANCH  18  20
ENDBRANCH   2  18
TORSDOF 4
ENDMDL
MODEL 8
REMARK VINA RESULT:    -5.887     14.701     17.733
REMARK INTER + INTRA:          -8.104
REMARK INTER:                  -7.331
REMARK INTRA:                  -0.773
REMARK UNBOUND:                -0.841
REMARK  Name = 
REMARK  6 active torsions:
REMARK  status: ('A' for Active; 'I' for Inactive)
REMARK    1  A    between atoms: C_1  and  C_2
REMARK    2  A    between atoms: C_2  and  C_4
REMARK    3  A    between atoms: C_5  and  S_6
REMARK    4  A    between atoms: S_6  and  C_8
REMARK    5  A    between atoms: C_8  and  C_9
REMARK    6  A    between atoms: C_11  and  C_12
REMARK                            x       y       z     vdW  Elec       q    Type
REMARK                         _______ _______ _______ _____ _____    ______ ____
ROOT
ATOM      1  C   UNL     1     -68.903 -51.343 -55.595  0.00  0.00    +0.000 A 
ATOM      2  C   UNL     1     -68.106 -50.254 -55.679  0.00  0.00    +0.000 A 
ATOM      3  N   UNL     1     -66.929 -50.113 -54.971  0.00  0.00    +0.000 N 
ATOM      4  C   UNL     1     -66.522 -51.024 -53.984  0.00  0.00    +0.000 A 
ATOM      5  C   UNL     1     -65.333 -50.814 -53.257  0.00  0.00    +0.000 A 
ATOM      6 BR   UNL     1     -64.280 -49.258 -53.537  0.00  0.00    +0.000 Br
ATOM      7  C   UNL     1     -64.898 -51.737 -52.312  0.00  0.00    +0.000 A 
ATOM      8  C   UNL     1     -65.642 -52.894 -52.088  0.00  0.00    +0.000 A 
ATOM      9  C   UNL     1     -66.813 -53.137 -52.816  0.00  0.00    +0.000 A 
ATOM     10 CL   UNL     1     -67.630 -54.608 -52.416  0.00  0.00    +0.000 Cl
ATOM     11  C   UNL     1     -67.248 -52.210 -53.783  0.00  0.00    +0.000 A 
ATOM     12  C   UNL     1     -68.479 -52.399 -54.607  0.00  0.00    +0.000 A 
ATOM     13  O   UNL     1     -69.172 -53.398 -54.451  0.00  0.00    +0.000 OA
ATOM     14  H   UNL     1     -66.616 -49.150 -54.831  0.00  0.00    +0.000 HD
ENDROOT
BRANCH   1  16
ATOM     15  C   UNL     1     -71.497 -51.158 -55.752  0.00  0.00    +0.000 C 
ATOM     16  C   UNL     1     -70.174 -51.531 -56.383  0.00  0.00    +0.000 C 
ATOM     17  O   UNL     1     -70.165 -51.979 -57.527  0.00  0.00    +0.000 OA
ENDBRANCH   1  16
BRANCH   2  18
ATOM     18  S   UNL     1     -68.606 -48.782 -56.632  0.00  0.00    +0.000 S 
ATOM     19  O   UNL     1     -69.685 -48.167 -55.781  0.00  0.00    +0.000 OA
BRANCH  18  20
ATOM     20  C   UNL     1     -67.117 -47.750 -56.382  0.00  0.00    +0.000 C 
BRANCH  20  21
ATOM     21  C   UNL     1     -66.315 -47.598 -57.633  0.00  0.00    +0.000 A 
ATOM     22  C   UNL     1     -65.089 -46.917 -57.857  0.00  0.00    +0.000 A 
ATOM     23  C   UNL     1     -64.822 -47.112 -59.190  0.00  0.00    +0.000 A 
ATOM     24  C   UNL     1     -63.766 -46.656 -60.111  0.00  0.00    +0.000 C 
ATOM     25  O   UNL     1     -65.791 -47.900 -59.725  0.00  0.00    +0.000 OA
ATOM     26  N   UNL     1     -66.724 -48.213 -58.753  0.00  0.00    +0.000 NA
ENDBRANCH  20  21
ENDBRANCH  18  20
ENDBRANCH   2  18
TORSDOF 4
ENDMDL
MODEL 9
REMARK VINA RESULT:    -5.799     12.032     15.110
REMARK INTER + INTRA:          -7.996
REMARK INTER:                  -7.184
REMARK INTRA:                  -0.812
REMARK UNBOUND:                -0.841
REMARK  Name = 
REMARK  6 active torsions:
REMARK  status: ('A' for Active; 'I' for Inactive)
REMARK    1  A    between atoms: C_1  and  C_2
REMARK    2  A    between atoms: C_2  and  C_4
REMARK    3  A    between atoms: C_5  and  S_6
REMARK    4  A    between atoms: S_6  and  C_8
REMARK    5  A    between atoms: C_8  and  C_9
REMARK    6  A    between atoms: C_11  and  C_12
REMARK                            x       y       z     vdW  Elec       q    Type
REMARK                         _______ _______ _______ _____ _____    ______ ____
ROOT
ATOM      1  C   UNL     1     -67.209 -47.856 -57.215  0.00  0.00    +0.000 A 
ATOM      2  C   UNL     1     -66.110 -47.452 -56.538  0.00  0.00    +0.000 A 
ATOM      3  N   UNL     1     -65.555 -48.161 -55.491  0.00  0.00    +0.000 N 
ATOM      4  C   UNL     1     -66.165 -49.296 -54.933  0.00  0.00    +0.000 A 
ATOM      5  C   UNL     1     -65.581 -49.960 -53.836  0.00  0.00    +0.000 A 
ATOM      6 BR   UNL     1     -63.991 -49.303 -53.031  0.00  0.00    +0.000 Br
ATOM      7  C   UNL     1     -66.153 -51.113 -53.309  0.00  0.00    +0.000 A 
ATOM      8  C   UNL     1     -67.315 -51.627 -53.881  0.00  0.00    +0.000 A 
ATOM      9  C   UNL     1     -67.899 -50.998 -54.987  0.00  0.00    +0.000 A 
ATOM     10 CL   UNL     1     -69.343 -51.749 -55.576  0.00  0.00    +0.000 Cl
ATOM     11  C   UNL     1     -67.314 -49.838 -55.531  0.00  0.00    +0.000 A 
ATOM     12  C   UNL     1     -67.869 -49.115 -56.714  0.00  0.00    +0.000 A 
ATOM     13  O   UNL     1     -68.890 -49.522 -57.256  0.00  0.00    +0.000 OA
ATOM     14  H   UNL     1     -64.984 -47.611 -54.845  0.00  0.00    +0.000 HD
ENDROOT
BRANCH   1  16
ATOM     15  C   UNL     1     -67.264 -47.354 -59.771  0.00  0.00    +0.000 C 
ATOM     16  C   UNL     1     -67.811 -47.115 -58.380  0.00  0.00    +0.000 C 
ATOM     17  O   UNL     1     -68.737 -46.321 -58.233  0.00  0.00    +0.000 OA
ENDBRANCH   1  16
BRANCH   2  18
ATOM     18  S   UNL     1     -65.346 -45.827 -56.852  0.00  0.00    +0.000 S 
ATOM     19  O   UNL     1     -65.714 -45.027 -55.630  0.00  0.00    +0.000 OA
BRANCH  18  20
ATOM     20  C   UNL     1     -63.587 -46.284 -56.644  0.00  0.00    +0.000 C 
BRANCH  20  21
ATOM     21  C   UNL     1     -62.882 -46.441 -57.951  0.00  0.00    +0.000 A 
ATOM     22  C   UNL     1     -63.407 -46.589 -59.262  0.00  0.00    +0.000 A 
ATOM     23  C   UNL     1     -62.300 -46.690 -60.069  0.00  0.00    +0.000 A 
ATOM     24  C   UNL     1     -62.089 -46.913 -61.510  0.00  0.00    +0.000 C 
ATOM     25  O   UNL     1     -61.183 -46.562 -59.308  0.00  0.00    +0.000 OA
ATOM     26  N   UNL     1     -61.541 -46.398 -57.982  0.00  0.00    +0.000 NA
ENDBRANCH  20  21
ENDBRANCH  18  20
ENDBRANCH   2  18
TORSDOF 4
ENDMDL
MODEL 10
REMARK VINA RESULT:    -5.662      3.736      4.233
REMARK INTER + INTRA:          -7.828
REMARK INTER:                  -6.835
REMARK INTRA:                  -0.993
REMARK UNBOUND:                -0.841
REMARK  Name = 
REMARK  6 active torsions:
REMARK  status: ('A' for Active; 'I' for Inactive)
REMARK    1  A    between atoms: C_1  and  C_2
REMARK    2  A    between atoms: C_2  and  C_4
REMARK    3  A    between atoms: C_5  and  S_6
REMARK    4  A    between atoms: S_6  and  C_8
REMARK    5  A    between atoms: C_8  and  C_9
REMARK    6  A    between atoms: C_11  and  C_12
REMARK                            x       y       z     vdW  Elec       q    Type
REMARK                         _______ _______ _______ _____ _____    ______ ____
ROOT
ATOM      1  C   UNL     1     -59.054 -38.258 -61.829  0.00  0.00    +0.000 A 
ATOM      2  C   UNL     1     -58.201 -39.229 -62.226  0.00  0.00    +0.000 A 
ATOM      3  N   UNL     1     -56.930 -38.981 -62.704  0.00  0.00    +0.000 N 
ATOM      4  C   UNL     1     -56.455 -37.685 -62.961  0.00  0.00    +0.000 A 
ATOM      5  C   UNL     1     -55.164 -37.485 -63.490  0.00  0.00    +0.000 A 
ATOM      6 BR   UNL     1     -54.053 -38.958 -63.938  0.00  0.00    +0.000 Br
ATOM      7  C   UNL     1     -54.667 -36.203 -63.701  0.00  0.00    +0.000 A 
ATOM      8  C   UNL     1     -55.452 -35.099 -63.375  0.00  0.00    +0.000 A 
ATOM      9  C   UNL     1     -56.729 -35.273 -62.825  0.00  0.00    +0.000 A 
ATOM     10 CL   UNL     1     -57.584 -33.809 -62.485  0.00  0.00    +0.000 Cl
ATOM     11  C   UNL     1     -57.228 -36.571 -62.597  0.00  0.00    +0.000 A 
ATOM     12  C   UNL     1     -58.573 -36.841 -62.006  0.00  0.00    +0.000 A 
ATOM     13  O   UNL     1     -59.306 -35.908 -61.702  0.00  0.00    +0.000 OA
ATOM     14  H   UNL     1     -56.533 -39.716 -63.293  0.00  0.00    +0.000 HD
ENDROOT
BRANCH   1  16
ATOM     15  C   UNL     1     -60.602 -38.732 -59.787  0.00  0.00    +0.000 C 
ATOM     16  C   UNL     1     -60.433 -38.509 -61.275  0.00  0.00    +0.000 C 
ATOM     17  O   UNL     1     -61.425 -38.538 -61.998  0.00  0.00    +0.000 OA
ENDBRANCH   1  16
BRANCH   2  18
ATOM     18  S   UNL     1     -58.724 -40.974 -62.315  0.00  0.00    +0.000 S 
ATOM     19  O   UNL     1     -59.618 -41.008 -63.526  0.00  0.00    +0.000 OA
BRANCH  18  20
ATOM     20  C   UNL     1     -57.142 -41.729 -62.834  0.00  0.00    +0.000 C 
BRANCH  20  21
ATOM     21  C   UNL     1     -57.090 -41.986 -64.305  0.00  0.00    +0.000 A 
ATOM     22  C   UNL     1     -57.337 -43.179 -65.034  0.00  0.00    +0.000 A 
ATOM     23  C   UNL     1     -57.144 -42.828 -66.348  0.00  0.00    +0.000 A 
ATOM     24  C   UNL     1     -57.174 -43.558 -67.628  0.00  0.00    +0.000 C 
ATOM     25  O   UNL     1     -56.852 -41.503 -66.415  0.00  0.00    +0.000 OA
ATOM     26  N   UNL     1     -56.824 -40.969 -65.139  0.00  0.00    +0.000 NA
ENDBRANCH  20  21
ENDBRANCH  18  20
ENDBRANCH   2  18
TORSDOF 4
ENDMDL
MODEL 11
REMARK VINA RESULT:    -5.537      4.314      6.294
REMARK INTER + INTRA:          -7.673
REMARK INTER:                  -6.968
REMARK INTRA:                  -0.705
REMARK UNBOUND:                -0.841
REMARK  Name = 
REMARK  6 active torsions:
REMARK  status: ('A' for Active; 'I' for Inactive)
REMARK    1  A    between atoms: C_1  and  C_2
REMARK    2  A    between atoms: C_2  and  C_4
REMARK    3  A    between atoms: C_5  and  S_6
REMARK    4  A    between atoms: S_6  and  C_8
REMARK    5  A    between atoms: C_8  and  C_9
REMARK    6  A    between atoms: C_11  and  C_12
REMARK                            x       y       z     vdW  Elec       q    Type
REMARK                         _______ _______ _______ _____ _____    ______ ____
ROOT
ATOM      1  C   UNL     1     -56.787 -35.716 -62.688  0.00  0.00    +0.000 A 
ATOM      2  C   UNL     1     -57.152 -36.934 -62.229  0.00  0.00    +0.000 A 
ATOM      3  N   UNL     1     -58.453 -37.272 -61.911  0.00  0.00    +0.000 N 
ATOM      4  C   UNL     1     -59.499 -36.335 -61.896  0.00  0.00    +0.000 A 
ATOM      5  C   UNL     1     -60.802 -36.720 -61.523  0.00  0.00    +0.000 A 
ATOM      6 BR   UNL     1     -61.174 -38.496 -60.962  0.00  0.00    +0.000 Br
ATOM      7  C   UNL     1     -61.854 -35.810 -61.553  0.00  0.00    +0.000 A 
ATOM      8  C   UNL     1     -61.619 -34.501 -61.968  0.00  0.00    +0.000 A 
ATOM      9  C   UNL     1     -60.337 -34.103 -62.367  0.00  0.00    +0.000 A 
ATOM     10 CL   UNL     1     -60.203 -32.445 -62.845  0.00  0.00    +0.000 Cl
ATOM     11  C   UNL     1     -59.273 -35.026 -62.352  0.00  0.00    +0.000 A 
ATOM     12  C   UNL     1     -57.882 -34.684 -62.770  0.00  0.00    +0.000 A 
ATOM     13  O   UNL     1     -57.618 -33.547 -63.144  0.00  0.00    +0.000 OA
ATOM     14  H   UNL     1     -58.555 -38.050 -61.257  0.00  0.00    +0.000 HD
ENDROOT
BRANCH   1  16
ATOM     15  C   UNL     1     -54.504 -34.628 -62.060  0.00  0.00    +0.000 C 
ATOM     16  C   UNL     1     -55.379 -35.337 -63.070  0.00  0.00    +0.000 C 
ATOM     17  O   UNL     1     -54.922 -35.589 -64.182  0.00  0.00    +0.000 OA
ENDBRANCH   1  16
BRANCH   2  18
ATOM     18  S   UNL     1     -55.912 -38.210 -61.831  0.00  0.00    +0.000 S 
ATOM     19  O   UNL     1     -56.475 -38.870 -60.600  0.00  0.00    +0.000 OA
BRANCH  18  20
ATOM     20  C   UNL     1     -56.227 -39.367 -63.212  0.00  0.00    +0.000 C 
BRANCH  20  21
ATOM     21  C   UNL     1     -54.976 -39.741 -63.936  0.00  0.00    +0.000 A 
ATOM     22  C   UNL     1     -53.910 -38.928 -64.403  0.00  0.00    +0.000 A 
ATOM     23  C   UNL     1     -53.034 -39.807 -64.990  0.00  0.00    +0.000 A 
ATOM     24  C   UNL     1     -51.760 -39.667 -65.719  0.00  0.00    +0.000 C 
ATOM     25  O   UNL     1     -53.509 -41.071 -64.845  0.00  0.00    +0.000 OA
ATOM     26  N   UNL     1     -54.721 -41.037 -64.179  0.00  0.00    +0.000 NA
ENDBRANCH  20  21
ENDBRANCH  18  20
ENDBRANCH   2  18
TORSDOF 4
ENDMDL
MODEL 12
REMARK VINA RESULT:    -5.453     15.860     17.958
REMARK INTER + INTRA:          -7.569
REMARK INTER:                  -6.502
REMARK INTRA:                  -1.068
REMARK UNBOUND:                -0.841
REMARK  Name = 
REMARK  6 active torsions:
REMARK  status: ('A' for Active; 'I' for Inactive)
REMARK    1  A    between atoms: C_1  and  C_2
REMARK    2  A    between atoms: C_2  and  C_4
REMARK    3  A    between atoms: C_5  and  S_6
REMARK    4  A    between atoms: S_6  and  C_8
REMARK    5  A    between atoms: C_8  and  C_9
REMARK    6  A    between atoms: C_11  and  C_12
REMARK                            x       y       z     vdW  Elec       q    Type
REMARK                         _______ _______ _______ _____ _____    ______ ____
ROOT
ATOM      1  C   UNL     1     -49.757 -25.452 -61.849  0.00  0.00    +0.000 A 
ATOM      2  C   UNL     1     -48.622 -25.950 -62.388  0.00  0.00    +0.000 A 
ATOM      3  N   UNL     1     -48.033 -25.445 -63.530  0.00  0.00    +0.000 N 
ATOM      4  C   UNL     1     -48.638 -24.457 -64.324  0.00  0.00    +0.000 A 
ATOM      5  C   UNL     1     -48.017 -24.003 -65.504  0.00  0.00    +0.000 A 
ATOM      6 BR   UNL     1     -46.380 -24.761 -66.100  0.00  0.00    +0.000 Br
ATOM      7  C   UNL     1     -48.585 -22.990 -66.269  0.00  0.00    +0.000 A 
ATOM      8  C   UNL     1     -49.781 -22.406 -65.857  0.00  0.00    +0.000 A 
ATOM      9  C   UNL     1     -50.403 -22.822 -64.674  0.00  0.00    +0.000 A 
ATOM     10 CL   UNL     1     -51.885 -22.011 -64.302  0.00  0.00    +0.000 Cl
ATOM     11  C   UNL     1     -49.822 -23.839 -63.890  0.00  0.00    +0.000 A 
ATOM     12  C   UNL     1     -50.417 -24.332 -62.612  0.00  0.00    +0.000 A 
ATOM     13  O   UNL     1     -51.469 -23.855 -62.203  0.00  0.00    +0.000 OA
ATOM     14  H   UNL     1     -47.424 -26.094 -64.032  0.00  0.00    +0.000 HD
ENDROOT
BRANCH   1  16
ATOM     15  C   UNL     1     -51.445 -27.057 -60.681  0.00  0.00    +0.000 C 
ATOM     16  C   UNL     1     -50.398 -25.968 -60.587  0.00  0.00    +0.000 C 
ATOM     17  O   UNL     1     -50.094 -25.528 -59.481  0.00  0.00    +0.000 OA
ENDBRANCH   1  16
BRANCH   2  18
ATOM     18  S   UNL     1     -47.843 -27.463 -61.732  0.00  0.00    +0.000 S 
ATOM     19  O   UNL     1     -47.471 -28.229 -62.973  0.00  0.00    +0.000 OA
BRANCH  18  20
ATOM     20  C   UNL     1     -46.286 -26.741 -61.100  0.00  0.00    +0.000 C 
BRANCH  20  21
ATOM     21  C   UNL     1     -46.521 -25.754 -60.004  0.00  0.00    +0.000 A 
ATOM     22  C   UNL     1     -46.526 -24.334 -60.037  0.00  0.00    +0.000 A 
ATOM     23  C   UNL     1     -46.798 -23.959 -58.744  0.00  0.00    +0.000 A 
ATOM     24  C   UNL     1     -46.901 -22.667 -58.042  0.00  0.00    +0.000 C 
ATOM     25  O   UNL     1     -46.995 -25.072 -57.991  0.00  0.00    +0.000 OA
ATOM     26  N   UNL     1     -46.830 -26.199 -58.776  0.00  0.00    +0.000 NA
ENDBRANCH  20  21
ENDBRANCH  18  20
ENDBRANCH   2  18
TORSDOF 4
ENDMDL
MODEL 13
REMARK VINA RESULT:    -5.441      3.424      6.460
REMARK INTER + INTRA:          -7.555
REMARK INTER:                  -6.832
REMARK INTRA:                  -0.723
REMARK UNBOUND:                -0.841
REMARK  Name = 
REMARK  6 active torsions:
REMARK  status: ('A' for Active; 'I' for Inactive)
REMARK    1  A    between atoms: C_1  and  C_2
REMARK    2  A    between atoms: C_2  and  C_4
REMARK    3  A    between atoms: C_5  and  S_6
REMARK    4  A    between atoms: S_6  and  C_8
REMARK    5  A    between atoms: C_8  and  C_9
REMARK    6  A    between atoms: C_11  and  C_12
REMARK                            x       y       z     vdW  Elec       q    Type
REMARK                         _______ _______ _______ _____ _____    ______ ____
ROOT
ATOM      1  C   UNL     1     -56.332 -41.668 -62.889  0.00  0.00    +0.000 A 
ATOM      2  C   UNL     1     -57.172 -40.767 -62.332  0.00  0.00    +0.000 A 
ATOM      3  N   UNL     1     -57.045 -39.402 -62.493  0.00  0.00    +0.000 N 
ATOM      4  C   UNL     1     -55.943 -38.812 -63.132  0.00  0.00    +0.000 A 
ATOM      5  C   UNL     1     -55.836 -37.410 -63.234  0.00  0.00    +0.000 A 
ATOM      6 BR   UNL     1     -57.140 -36.273 -62.450  0.00  0.00    +0.000 Br
ATOM      7  C   UNL     1     -54.773 -36.819 -63.908  0.00  0.00    +0.000 A 
ATOM      8  C   UNL     1     -53.803 -37.624 -64.502  0.00  0.00    +0.000 A 
ATOM      9  C   UNL     1     -53.901 -39.020 -64.436  0.00  0.00    +0.000 A 
ATOM     10 CL   UNL     1     -52.617 -39.880 -65.211  0.00  0.00    +0.000 Cl
ATOM     11  C   UNL     1     -54.985 -39.621 -63.765  0.00  0.00    +0.000 A 
ATOM     12  C   UNL     1     -55.167 -41.099 -63.658  0.00  0.00    +0.000 A 
ATOM     13  O   UNL     1     -54.344 -41.855 -64.161  0.00  0.00    +0.000 OA
ATOM     14  H   UNL     1     -57.483 -38.833 -61.765  0.00  0.00    +0.000 HD
ENDROOT
BRANCH   1  16
ATOM     15  C   UNL     1     -57.395 -43.907 -63.693  0.00  0.00    +0.000 C 
ATOM     16  C   UNL     1     -56.472 -43.162 -62.753  0.00  0.00    +0.000 C 
ATOM     17  O   UNL     1     -55.857 -43.794 -61.898  0.00  0.00    +0.000 OA
ENDBRANCH   1  16
BRANCH   2  18
ATOM     18  S   UNL     1     -58.478 -41.281 -61.167  0.00  0.00    +0.000 S 
ATOM     19  O   UNL     1     -57.766 -41.317 -59.841  0.00  0.00    +0.000 OA
BRANCH  18  20
ATOM     20  C   UNL     1     -59.483 -39.753 -61.159  0.00  0.00    +0.000 C 
BRANCH  20  21
ATOM     21  C   UNL     1     -60.898 -40.001 -61.568  0.00  0.00    +0.000 A 
ATOM     22  C   UNL     1     -61.593 -39.610 -62.743  0.00  0.00    +0.000 A 
ATOM     23  C   UNL     1     -62.860 -40.114 -62.579  0.00  0.00    +0.000 A 
ATOM     24  C   UNL     1     -64.107 -40.048 -63.362  0.00  0.00    +0.000 C 
ATOM     25  O   UNL     1     -62.916 -40.805 -61.412  0.00  0.00    +0.000 OA
ATOM     26  N   UNL     1     -61.688 -40.745 -60.778  0.00  0.00    +0.000 NA
ENDBRANCH  20  21
ENDBRANCH  18  20
ENDBRANCH   2  18
TORSDOF 4
ENDMDL
MODEL 14
REMARK VINA RESULT:    -5.405      2.754      3.355
REMARK INTER + INTRA:          -7.510
REMARK INTER:                  -6.884
REMARK INTRA:                  -0.625
REMARK UNBOUND:                -0.841
REMARK  Name = 
REMARK  6 active torsions:
REMARK  status: ('A' for Active; 'I' for Inactive)
REMARK    1  A    between atoms: C_1  and  C_2
REMARK    2  A    between atoms: C_2  and  C_4
REMARK    3  A    between atoms: C_5  and  S_6
REMARK    4  A    between atoms: S_6  and  C_8
REMARK    5  A    between atoms: C_8  and  C_9
REMARK    6  A    between atoms: C_11  and  C_12
REMARK                            x       y       z     vdW  Elec       q    Type
REMARK                         _______ _______ _______ _____ _____    ______ ____
ROOT
ATOM      1  C   UNL     1     -57.246 -39.024 -60.952  0.00  0.00    +0.000 A 
ATOM      2  C   UNL     1     -56.510 -40.037 -61.462  0.00  0.00    +0.000 A 
ATOM      3  N   UNL     1     -55.541 -39.864 -62.431  0.00  0.00    +0.000 N 
ATOM      4  C   UNL     1     -55.330 -38.640 -63.084  0.00  0.00    +0.000 A 
ATOM      5  C   UNL     1     -54.357 -38.524 -64.097  0.00  0.00    +0.000 A 
ATOM      6 BR   UNL     1     -53.352 -40.033 -64.663  0.00  0.00    +0.000 Br
ATOM      7  C   UNL     1     -54.107 -37.303 -64.715  0.00  0.00    +0.000 A 
ATOM      8  C   UNL     1     -54.820 -36.174 -64.318  0.00  0.00    +0.000 A 
ATOM      9  C   UNL     1     -55.774 -36.259 -63.296  0.00  0.00    +0.000 A 
ATOM     10 CL   UNL     1     -56.582 -34.775 -62.926  0.00  0.00    +0.000 Cl
ATOM     11  C   UNL     1     -56.019 -37.492 -62.660  0.00  0.00    +0.000 A 
ATOM     12  C   UNL     1     -57.010 -37.664 -61.557  0.00  0.00    +0.000 A 
ATOM     13  O   UNL     1     -57.666 -36.705 -61.169  0.00  0.00    +0.000 OA
ATOM     14  H   UNL     1     -55.322 -40.696 -62.983  0.00  0.00    +0.000 HD
ENDROOT
BRANCH   1  16
ATOM     15  C   UNL     1     -57.848 -39.202 -58.423  0.00  0.00    +0.000 C 
ATOM     16  C   UNL     1     -58.284 -39.186 -59.872  0.00  0.00    +0.000 C 
ATOM     17  O   UNL     1     -59.478 -39.305 -60.135  0.00  0.00    +0.000 OA
ENDBRANCH   1  16
BRANCH   2  18
ATOM     18  S   UNL     1     -56.850 -41.773 -61.022  0.00  0.00    +0.000 S 
ATOM     19  O   UNL     1     -58.262 -41.984 -61.502  0.00  0.00    +0.000 OA
BRANCH  18  20
ATOM     20  C   UNL     1     -55.773 -42.603 -62.245  0.00  0.00    +0.000 C 
BRANCH  20  21
ATOM     21  C   UNL     1     -56.503 -42.956 -63.499  0.00  0.00    +0.000 A 
ATOM     22  C   UNL     1     -56.496 -42.326 -64.771  0.00  0.00    +0.000 A 
ATOM     23  C   UNL     1     -57.349 -43.081 -65.537  0.00  0.00    +0.000 A 
ATOM     24  C   UNL     1     -57.857 -42.987 -66.917  0.00  0.00    +0.000 C 
ATOM     25  O   UNL     1     -57.802 -44.126 -64.797  0.00  0.00    +0.000 OA
ATOM     26  N   UNL     1     -57.270 -44.058 -63.522  0.00  0.00    +0.000 NA
ENDBRANCH  20  21
ENDBRANCH  18  20
ENDBRANCH   2  18
TORSDOF 4
ENDMDL
MODEL 15
REMARK VINA RESULT:    -5.399      3.944      7.299
REMARK INTER + INTRA:          -7.503
REMARK INTER:                  -6.798
REMARK INTRA:                  -0.705
REMARK UNBOUND:                -0.841
REMARK  Name = 
REMARK  6 active torsions:
REMARK  status: ('A' for Active; 'I' for Inactive)
REMARK    1  A    between atoms: C_1  and  C_2
REMARK    2  A    between atoms: C_2  and  C_4
REMARK    3  A    between atoms: C_5  and  S_6
REMARK    4  A    between atoms: S_6  and  C_8
REMARK    5  A    between atoms: C_8  and  C_9
REMARK    6  A    between atoms: C_11  and  C_12
REMARK                            x       y       z     vdW  Elec       q    Type
REMARK                         _______ _______ _______ _____ _____    ______ ____
ROOT
ATOM      1  C   UNL     1     -56.421 -42.312 -62.904  0.00  0.00    +0.000 A 
ATOM      2  C   UNL     1     -57.071 -41.558 -61.989  0.00  0.00    +0.000 A 
ATOM      3  N   UNL     1     -56.809 -41.608 -60.634  0.00  0.00    +0.000 N 
ATOM      4  C   UNL     1     -55.943 -42.553 -60.061  0.00  0.00    +0.000 A 
ATOM      5  C   UNL     1     -55.741 -42.591 -58.667  0.00  0.00    +0.000 A 
ATOM      6 BR   UNL     1     -56.685 -41.416 -57.512  0.00  0.00    +0.000 Br
ATOM      7  C   UNL     1     -54.847 -43.491 -58.097  0.00  0.00    +0.000 A 
ATOM      8  C   UNL     1     -54.132 -44.362 -58.916  0.00  0.00    +0.000 A 
ATOM      9  C   UNL     1     -54.297 -44.325 -60.307  0.00  0.00    +0.000 A 
ATOM     10 CL   UNL     1     -53.349 -45.474 -61.186  0.00  0.00    +0.000 Cl
ATOM     11  C   UNL     1     -55.191 -43.404 -60.888  0.00  0.00    +0.000 A 
ATOM     12  C   UNL     1     -55.417 -43.296 -62.360  0.00  0.00    +0.000 A 
ATOM     13  O   UNL     1     -54.816 -44.037 -63.127  0.00  0.00    +0.000 OA
ATOM     14  H   UNL     1     -57.571 -41.292 -60.030  0.00  0.00    +0.000 HD
ENDROOT
BRANCH   1  16
ATOM     15  C   UNL     1     -55.864 -41.286 -65.233  0.00  0.00    +0.000 C 
ATOM     16  C   UNL     1     -56.669 -42.250 -64.389  0.00  0.00    +0.000 C 
ATOM     17  O   UNL     1     -57.507 -42.963 -64.935  0.00  0.00    +0.000 OA
ENDBRANCH   1  16
BRANCH   2  18
ATOM     18  S   UNL     1     -58.486 -40.508 -62.456  0.00  0.00    +0.000 S 
ATOM     19  O   UNL     1     -59.679 -41.369 -62.136  0.00  0.00    +0.000 OA
BRANCH  18  20
ATOM     20  C   UNL     1     -58.386 -39.266 -61.117  0.00  0.00    +0.000 C 
BRANCH  20  21
ATOM     21  C   UNL     1     -58.157 -37.886 -61.639  0.00  0.00    +0.000 A 
ATOM     22  C   UNL     1     -56.944 -37.193 -61.893  0.00  0.00    +0.000 A 
ATOM     23  C   UNL     1     -57.339 -35.964 -62.363  0.00  0.00    +0.000 A 
ATOM     24  C   UNL     1     -56.632 -34.735 -62.767  0.00  0.00    +0.000 C 
ATOM     25  O   UNL     1     -58.695 -35.932 -62.436  0.00  0.00    +0.000 OA
ATOM     26  N   UNL     1     -59.212 -37.135 -61.991  0.00  0.00    +0.000 NA
ENDBRANCH  20  21
ENDBRANCH  18  20
ENDBRANCH   2  18
TORSDOF 4
ENDMDL
MODEL 16
REMARK VINA RESULT:    -5.249      4.165      7.504
REMARK INTER + INTRA:          -7.318
REMARK INTER:                  -6.551
REMARK INTRA:                  -0.766
REMARK UNBOUND:                -0.841
REMARK  Name = 
REMARK  6 active torsions:
REMARK  status: ('A' for Active; 'I' for Inactive)
REMARK    1  A    between atoms: C_1  and  C_2
REMARK    2  A    between atoms: C_2  and  C_4
REMARK    3  A    between atoms: C_5  and  S_6
REMARK    4  A    between atoms: S_6  and  C_8
REMARK    5  A    between atoms: C_8  and  C_9
REMARK    6  A    between atoms: C_11  and  C_12
REMARK                            x       y       z     vdW  Elec       q    Type
REMARK                         _______ _______ _______ _____ _____    ______ ____
ROOT
ATOM      1  C   UNL     1     -59.030 -39.647 -62.305  0.00  0.00    +0.000 A 
ATOM      2  C   UNL     1     -58.163 -38.613 -62.232  0.00  0.00    +0.000 A 
ATOM      3  N   UNL     1     -56.941 -38.594 -62.876  0.00  0.00    +0.000 N 
ATOM      4  C   UNL     1     -56.419 -39.710 -63.549  0.00  0.00    +0.000 A 
ATOM      5  C   UNL     1     -55.148 -39.655 -64.154  0.00  0.00    +0.000 A 
ATOM      6 BR   UNL     1     -54.069 -38.098 -64.019  0.00  0.00    +0.000 Br
ATOM      7  C   UNL     1     -54.646 -40.740 -64.865  0.00  0.00    +0.000 A 
ATOM      8  C   UNL     1     -55.414 -41.895 -64.991  0.00  0.00    +0.000 A 
ATOM      9  C   UNL     1     -56.691 -41.964 -64.420  0.00  0.00    +0.000 A 
ATOM     10 CL   UNL     1     -57.517 -43.466 -64.653  0.00  0.00    +0.000 Cl
ATOM     11  C   UNL     1     -57.208 -40.861 -63.711  0.00  0.00    +0.000 A 
ATOM     12  C   UNL     1     -58.562 -40.851 -63.082  0.00  0.00    +0.000 A 
ATOM     13  O   UNL     1     -59.281 -41.840 -63.160  0.00  0.00    +0.000 OA
ATOM     14  H   UNL     1     -56.245 -37.963 -62.473  0.00  0.00    +0.000 HD
ENDROOT
BRANCH   1  16
ATOM     15  C   UNL     1     -61.584 -39.136 -62.381  0.00  0.00    +0.000 C 
ATOM     16  C   UNL     1     -60.381 -39.674 -61.637  0.00  0.00    +0.000 C 
ATOM     17  O   UNL     1     -60.533 -40.122 -60.504  0.00  0.00    +0.000 OA
ENDBRANCH   1  16
BRANCH   2  18
ATOM     18  S   UNL     1     -58.467 -37.193 -61.129  0.00  0.00    +0.000 S 
ATOM     19  O   UNL     1     -58.094 -37.723 -59.770  0.00  0.00    +0.000 OA
BRANCH  18  20
ATOM     20  C   UNL     1     -57.084 -36.115 -61.648  0.00  0.00    +0.000 C 
BRANCH  20  21
ATOM     21  C   UNL     1     -57.554 -34.788 -62.146  0.00  0.00    +0.000 A 
ATOM     22  C   UNL     1     -58.762 -34.432 -62.802  0.00  0.00    +0.000 A 
ATOM     23  C   UNL     1     -58.651 -33.081 -63.023  0.00  0.00    +0.000 A 
ATOM     24  C   UNL     1     -59.489 -32.071 -63.694  0.00  0.00    +0.000 C 
ATOM     25  O   UNL     1     -57.481 -32.639 -62.493  0.00  0.00    +0.000 OA
ATOM     26  N   UNL     1     -56.794 -33.702 -61.936  0.00  0.00    +0.000 NA
ENDBRANCH  20  21
ENDBRANCH  18  20
ENDBRANCH   2  18
TORSDOF 4
ENDMDL
MODEL 17
REMARK VINA RESULT:    -5.245     14.574     17.569
REMARK INTER + INTRA:          -7.312
REMARK INTER:                  -6.386
REMARK INTRA:                  -0.926
REMARK UNBOUND:                -0.841
REMARK  Name = 
REMARK  6 active torsions:
REMARK  status: ('A' for Active; 'I' for Inactive)
REMARK    1  A    between atoms: C_1  and  C_2
REMARK    2  A    between atoms: C_2  and  C_4
REMARK    3  A    between atoms: C_5  and  S_6
REMARK    4  A    between atoms: S_6  and  C_8
REMARK    5  A    between atoms: C_8  and  C_9
REMARK    6  A    between atoms: C_11  and  C_12
REMARK                            x       y       z     vdW  Elec       q    Type
REMARK                         _______ _______ _______ _____ _____    ______ ____
ROOT
ATOM      1  C   UNL     1     -46.919 -25.255 -64.400  0.00  0.00    +0.000 A 
ATOM      2  C   UNL     1     -47.477 -25.604 -63.219  0.00  0.00    +0.000 A 
ATOM      3  N   UNL     1     -48.704 -25.139 -62.787  0.00  0.00    +0.000 N 
ATOM      4  C   UNL     1     -49.423 -24.145 -63.469  0.00  0.00    +0.000 A 
ATOM      5  C   UNL     1     -50.651 -23.673 -62.964  0.00  0.00    +0.000 A 
ATOM      6 BR   UNL     1     -51.339 -24.312 -61.314  0.00  0.00    +0.000 Br
ATOM      7  C   UNL     1     -51.394 -22.724 -63.659  0.00  0.00    +0.000 A 
ATOM      8  C   UNL     1     -50.923 -22.240 -64.878  0.00  0.00    +0.000 A 
ATOM      9  C   UNL     1     -49.717 -22.713 -65.411  0.00  0.00    +0.000 A 
ATOM     10 CL   UNL     1     -49.261 -22.009 -66.924  0.00  0.00    +0.000 Cl
ATOM     11  C   UNL     1     -48.970 -23.684 -64.716  0.00  0.00    +0.000 A 
ATOM     12  C   UNL     1     -47.682 -24.246 -65.220  0.00  0.00    +0.000 A 
ATOM     13  O   UNL     1     -47.220 -23.856 -66.286  0.00  0.00    +0.000 OA
ATOM     14  H   UNL     1     -48.850 -25.168 -61.776  0.00  0.00    +0.000 HD
ENDROOT
BRANCH   1  16
ATOM     15  C   UNL     1     -44.355 -24.930 -64.726  0.00  0.00    +0.000 C 
ATOM     16  C   UNL     1     -45.598 -25.775 -64.905  0.00  0.00    +0.000 C 
ATOM     17  O   UNL     1     -45.502 -26.867 -65.458  0.00  0.00    +0.000 OA
ENDBRANCH   1  16
BRANCH   2  18
ATOM     18  S   UNL     1     -46.569 -26.611 -62.001  0.00  0.00    +0.000 S 
ATOM     19  O   UNL     1     -47.232 -26.260 -60.695  0.00  0.00    +0.000 OA
BRANCH  18  20
ATOM     20  C   UNL     1     -47.199 -28.266 -62.458  0.00  0.00    +0.000 C 
BRANCH  20  21
ATOM     21  C   UNL     1     -48.547 -28.541 -61.879  0.00  0.00    +0.000 A 
ATOM     22  C   UNL     1     -48.912 -29.253 -60.706  0.00  0.00    +0.000 A 
ATOM     23  C   UNL     1     -50.283 -29.183 -60.670  0.00  0.00    +0.000 A 
ATOM     24  C   UNL     1     -51.323 -29.734 -59.783  0.00  0.00    +0.000 C 
ATOM     25  O   UNL     1     -50.717 -28.437 -61.719  0.00  0.00    +0.000 OA
ATOM     26  N   UNL     1     -49.634 -28.026 -62.475  0.00  0.00    +0.000 NA
ENDBRANCH  20  21
ENDBRANCH  18  20
ENDBRANCH   2  18
TORSDOF 4
ENDMDL
MODEL 18
REMARK VINA RESULT:    -5.191      9.272     11.157
REMARK INTER + INTRA:          -7.245
REMARK INTER:                  -6.527
REMARK INTRA:                  -0.718
REMARK UNBOUND:                -0.841
REMARK  Name = 
REMARK  6 active torsions:
REMARK  status: ('A' for Active; 'I' for Inactive)
REMARK    1  A    between atoms: C_1  and  C_2
REMARK    2  A    between atoms: C_2  and  C_4
REMARK    3  A    between atoms: C_5  and  S_6
REMARK    4  A    between atoms: S_6  and  C_8
REMARK    5  A    between atoms: C_8  and  C_9
REMARK    6  A    between atoms: C_11  and  C_12
REMARK                            x       y       z     vdW  Elec       q    Type
REMARK                         _______ _______ _______ _____ _____    ______ ____
ROOT
ATOM      1  C   UNL     1     -64.240 -43.226 -69.808  0.00  0.00    +0.000 A 
ATOM      2  C   UNL     1     -63.470 -42.528 -68.944  0.00  0.00    +0.000 A 
ATOM      3  N   UNL     1     -63.980 -41.742 -67.930  0.00  0.00    +0.000 N 
ATOM      4  C   UNL     1     -65.351 -41.475 -67.791  0.00  0.00    +0.000 A 
ATOM      5  C   UNL     1     -65.819 -40.631 -66.765  0.00  0.00    +0.000 A 
ATOM      6 BR   UNL     1     -64.609 -39.770 -65.581  0.00  0.00    +0.000 Br
ATOM      7  C   UNL     1     -67.180 -40.402 -66.590  0.00  0.00    +0.000 A 
ATOM      8  C   UNL     1     -68.096 -41.024 -67.435  0.00  0.00    +0.000 A 
ATOM      9  C   UNL     1     -67.656 -41.887 -68.446  0.00  0.00    +0.000 A 
ATOM     10 CL   UNL     1     -68.911 -42.574 -69.419  0.00  0.00    +0.000 Cl
ATOM     11  C   UNL     1     -66.279 -42.132 -68.616  0.00  0.00    +0.000 A 
ATOM     12  C   UNL     1     -65.729 -43.045 -69.662  0.00  0.00    +0.000 A 
ATOM     13  O   UNL     1     -66.489 -43.619 -70.434  0.00  0.00    +0.000 OA
ATOM     14  H   UNL     1     -63.356 -41.005 -67.592  0.00  0.00    +0.000 HD
ENDROOT
BRANCH   1  16
ATOM     15  C   UNL     1     -63.513 -43.546 -72.290  0.00  0.00    +0.000 C 
ATOM     16  C   UNL     1     -63.704 -44.115 -70.901  0.00  0.00    +0.000 C 
ATOM     17  O   UNL     1     -63.417 -45.291 -70.694  0.00  0.00    +0.000 OA
ENDBRANCH   1  16
BRANCH   2  18
ATOM     18  S   UNL     1     -61.660 -42.437 -69.145  0.00  0.00    +0.000 S 
ATOM     19  O   UNL     1     -61.482 -41.415 -70.237  0.00  0.00    +0.000 OA
BRANCH  18  20
ATOM     20  C   UNL     1     -61.232 -41.587 -67.583  0.00  0.00    +0.000 C 
BRANCH  20  21
ATOM     21  C   UNL     1     -59.846 -41.902 -67.126  0.00  0.00    +0.000 A 
ATOM     22  C   UNL     1     -59.209 -41.636 -65.886  0.00  0.00    +0.000 A 
ATOM     23  C   UNL     1     -57.943 -42.150 -66.029  0.00  0.00    +0.000 A 
ATOM     24  C   UNL     1     -56.739 -42.183 -65.180  0.00  0.00    +0.000 C 
ATOM     25  O   UNL     1     -57.836 -42.732 -67.251  0.00  0.00    +0.000 OA
ATOM     26  N   UNL     1     -59.027 -42.587 -67.940  0.00  0.00    +0.000 NA
ENDBRANCH  20  21
ENDBRANCH  18  20
ENDBRANCH   2  18
TORSDOF 4
ENDMDL
MODEL 19
REMARK VINA RESULT:    -5.115      7.586     10.047
REMARK INTER + INTRA:          -7.152
REMARK INTER:                  -6.155
REMARK INTRA:                  -0.997
REMARK UNBOUND:                -0.841
REMARK  Name = 
REMARK  6 active torsions:
REMARK  status: ('A' for Active; 'I' for Inactive)
REMARK    1  A    between atoms: C_1  and  C_2
REMARK    2  A    between atoms: C_2  and  C_4
REMARK    3  A    between atoms: C_5  and  S_6
REMARK    4  A    between atoms: S_6  and  C_8
REMARK    5  A    between atoms: C_8  and  C_9
REMARK    6  A    between atoms: C_11  and  C_12
REMARK                            x       y       z     vdW  Elec       q    Type
REMARK                         _______ _______ _______ _____ _____    ______ ____
ROOT
ATOM      1  C   UNL     1     -56.627 -31.453 -60.565  0.00  0.00    +0.000 A 
ATOM      2  C   UNL     1     -57.215 -32.247 -61.488  0.00  0.00    +0.000 A 
ATOM      3  N   UNL     1     -56.626 -33.384 -62.004  0.00  0.00    +0.000 N 
ATOM      4  C   UNL     1     -55.298 -33.745 -61.726  0.00  0.00    +0.000 A 
ATOM      5  C   UNL     1     -54.727 -34.893 -62.311  0.00  0.00    +0.000 A 
ATOM      6 BR   UNL     1     -55.709 -35.949 -63.547  0.00  0.00    +0.000 Br
ATOM      7  C   UNL     1     -53.429 -35.285 -62.002  0.00  0.00    +0.000 A 
ATOM      8  C   UNL     1     -52.683 -34.538 -61.093  0.00  0.00    +0.000 A 
ATOM      9  C   UNL     1     -53.238 -33.408 -60.480  0.00  0.00    +0.000 A 
ATOM     10 CL   UNL     1     -52.185 -32.580 -59.384  0.00  0.00    +0.000 Cl
ATOM     11  C   UNL     1     -54.558 -33.017 -60.780  0.00  0.00    +0.000 A 
ATOM     12  C   UNL     1     -55.224 -31.832 -60.163  0.00  0.00    +0.000 A 
ATOM     13  O   UNL     1     -54.615 -31.138 -59.357  0.00  0.00    +0.000 OA
ATOM     14  H   UNL     1     -56.977 -33.683 -62.916  0.00  0.00    +0.000 HD
ENDROOT
BRANCH   1  16
ATOM     15  C   UNL     1     -58.132 -30.372 -58.733  0.00  0.00    +0.000 C 
ATOM     16  C   UNL     1     -57.265 -30.227 -59.965  0.00  0.00    +0.000 C 
ATOM     17  O   UNL     1     -57.100 -29.110 -60.449  0.00  0.00    +0.000 OA
ENDBRANCH   1  16
BRANCH   2  18
ATOM     18  S   UNL     1     -58.800 -31.788 -62.264  0.00  0.00    +0.000 S 
ATOM     19  O   UNL     1     -58.405 -30.730 -63.260  0.00  0.00    +0.000 OA
BRANCH  18  20
ATOM     20  C   UNL     1     -59.103 -33.307 -63.235  0.00  0.00    +0.000 C 
BRANCH  20  21
ATOM     21  C   UNL     1     -59.896 -34.319 -62.474  0.00  0.00    +0.000 A 
ATOM     22  C   UNL     1     -61.297 -34.548 -62.441  0.00  0.00    +0.000 A 
ATOM     23  C   UNL     1     -61.456 -35.601 -61.574  0.00  0.00    +0.000 A 
ATOM     24  C   UNL     1     -62.618 -36.325 -61.029  0.00  0.00    +0.000 C 
ATOM     25  O   UNL     1     -60.234 -36.015 -61.151  0.00  0.00    +0.000 OA
ATOM     26  N   UNL     1     -59.253 -35.221 -61.716  0.00  0.00    +0.000 NA
ENDBRANCH  20  21
ENDBRANCH  18  20
ENDBRANCH   2  18
TORSDOF 4
ENDMDL
MODEL 20
REMARK VINA RESULT:    -5.044     13.333     15.347
REMARK INTER + INTRA:          -7.064
REMARK INTER:                  -6.260
REMARK INTRA:                  -0.804
REMARK UNBOUND:                -0.841
REMARK  Name = 
REMARK  6 active torsions:
REMARK  status: ('A' for Active; 'I' for Inactive)
REMARK    1  A    between atoms: C_1  and  C_2
REMARK    2  A    between atoms: C_2  and  C_4
REMARK    3  A    between atoms: C_5  and  S_6
REMARK    4  A    between atoms: S_6  and  C_8
REMARK    5  A    between atoms: C_8  and  C_9
REMARK    6  A    between atoms: C_11  and  C_12
REMARK                            x       y       z     vdW  Elec       q    Type
REMARK                         _______ _______ _______ _____ _____    ______ ____
ROOT
ATOM      1  C   UNL     1     -65.185 -43.052 -69.960  0.00  0.00    +0.000 A 
ATOM      2  C   UNL     1     -66.376 -43.383 -70.507  0.00  0.00    +0.000 A 
ATOM      3  N   UNL     1     -66.532 -43.771 -71.823  0.00  0.00    +0.000 N 
ATOM      4  C   UNL     1     -65.487 -43.717 -72.760  0.00  0.00    +0.000 A 
ATOM      5  C   UNL     1     -65.706 -44.082 -74.103  0.00  0.00    +0.000 A 
ATOM      6 BR   UNL     1     -67.433 -44.591 -74.707  0.00  0.00    +0.000 Br
ATOM      7  C   UNL     1     -64.665 -44.079 -75.025  0.00  0.00    +0.000 A 
ATOM      8  C   UNL     1     -63.383 -43.719 -74.614  0.00  0.00    +0.000 A 
ATOM      9  C   UNL     1     -63.136 -43.376 -73.279  0.00  0.00    +0.000 A 
ATOM     10 CL   UNL     1     -61.499 -42.943 -72.926  0.00  0.00    +0.000 Cl
ATOM     11  C   UNL     1     -64.186 -43.393 -72.340  0.00  0.00    +0.000 A 
ATOM     12  C   UNL     1     -64.004 -43.050 -70.898  0.00  0.00    +0.000 A 
ATOM     13  O   UNL     1     -62.898 -42.726 -70.481  0.00  0.00    +0.000 OA
ATOM     14  H   UNL     1     -67.470 -43.643 -72.208  0.00  0.00    +0.000 HD
ENDROOT
BRANCH   1  16
ATOM     15  C   UNL     1     -64.999 -41.191 -68.146  0.00  0.00    +0.000 C 
ATOM     16  C   UNL     1     -64.988 -42.658 -68.519  0.00  0.00    +0.000 C 
ATOM     17  O   UNL     1     -64.820 -43.496 -67.637  0.00  0.00    +0.000 OA
ENDBRANCH   1  16
BRANCH   2  18
ATOM     18  S   UNL     1     -67.933 -43.190 -69.578  0.00  0.00    +0.000 S 
ATOM     19  O   UNL     1     -68.173 -41.704 -69.606  0.00  0.00    +0.000 OA
BRANCH  18  20
ATOM     20  C   UNL     1     -69.093 -43.912 -70.794  0.00  0.00    +0.000 C 
BRANCH  20  21
ATOM     21  C   UNL     1     -69.562 -45.272 -70.394  0.00  0.00    +0.000 A 
ATOM     22  C   UNL     1     -70.182 -46.290 -71.165  0.00  0.00    +0.000 A 
ATOM     23  C   UNL     1     -70.389 -47.319 -70.279  0.00  0.00    +0.000 A 
ATOM     24  C   UNL     1     -71.025 -48.646 -70.366  0.00  0.00    +0.000 C 
ATOM     25  O   UNL     1     -69.884 -46.969 -69.068  0.00  0.00    +0.000 OA
ATOM     26  N   UNL     1     -69.358 -45.692 -69.135  0.00  0.00    +0.000 NA
ENDBRANCH  20  21
ENDBRANCH  18  20
ENDBRANCH   2  18
TORSDOF 4
ENDMDL
