REMARK VINA RESULT:    -5.517     12.403     15.860
REMARK INTER + INTRA:          -8.040
REMARK INTER:                  -6.927
REMARK INTRA:                  -1.113
REMARK UNBOUND:                -0.910
REMARK  Name = 
REMARK  6 active torsions:
REMARK  status: ('A' for Active; 'I' for Inactive)
REMARK    1  A    between atoms: C_1  and  C_2
REMARK    2  A    between atoms: C_4  and  C_5
REMARK    3  A    between atoms: C_5  and  S_6
REMARK    4  A    between atoms: S_6  and  C_8
REMARK    5  A    between atoms: C_20  and  C_21
REMARK    6  A    between atoms: C_21  and  C_23
REMARK                            x       y       z     vdW  Elec       q    Type
REMARK                         _______ _______ _______ _____ _____    ______ ____
ROOT
ATOM      1  C   UNL     1     -65.380 -47.735 -55.155  0.00  0.00    +0.000 A 
ATOM      2  N   UNL     1     -64.431 -47.202 -56.050  0.00  0.00    +0.000 N 
ATOM      3  C   UNL     1     -64.838 -46.667 -57.303  0.00  0.00    +0.000 A 
ATOM      4  C   UNL     1     -64.040 -45.788 -58.058  0.00  0.00    +0.000 A 
ATOM      5 BR   UNL     1     -62.413 -45.102 -57.365  0.00  0.00    +0.000 Br
ATOM      6  C   UNL     1     -64.432 -45.372 -59.338  0.00  0.00    +0.000 A 
ATOM      7  C   UNL     1     -65.650 -45.814 -59.868  0.00  0.00    +0.000 A 
ATOM      8  C   UNL     1     -66.459 -46.684 -59.137  0.00  0.00    +0.000 A 
ATOM      9 CL   UNL     1     -67.973 -47.112 -59.847  0.00  0.00    +0.000 Cl
ATOM     10  C   UNL     1     -66.038 -47.122 -57.871  0.00  0.00    +0.000 A 
ATOM     11  C   UNL     1     -66.784 -48.106 -57.063  0.00  0.00    +0.000 A 
ATOM     12  O   UNL     1     -67.465 -48.982 -57.581  0.00  0.00    +0.000 OA
ATOM     13  C   UNL     1     -66.624 -48.057 -55.573  0.00  0.00    +0.000 A 
ATOM     14  H   UNL     1     -63.719 -46.636 -55.569  0.00  0.00    +0.000 HD
ENDROOT
BRANCH   1  15
ATOM     15  S   UNL     1     -64.908 -47.504 -53.421  0.00  0.00    +0.000 S 
ATOM     16  O   UNL     1     -63.784 -46.506 -53.473  0.00  0.00    +0.000 OA
BRANCH  15  17
ATOM     17  C   UNL     1     -64.227 -49.056 -52.766  0.00  0.00    +0.000 C 
BRANCH  17  21
ATOM     18  C   UNL     1     -66.574 -53.420 -51.475  0.00  0.00    +0.000 C 
ATOM     19  C   UNL     1     -66.039 -52.068 -51.718  0.00  0.00    +0.000 A 
ATOM     20  C   UNL     1     -64.962 -51.564 -52.409  0.00  0.00    +0.000 A 
ATOM     21  C   UNL     1     -65.100 -50.162 -52.307  0.00  0.00    +0.000 A 
ATOM     22  N   UNL     1     -66.158 -49.846 -51.540  0.00  0.00    +0.000 NA
ATOM     23  O   UNL     1     -66.742 -51.041 -51.176  0.00  0.00    +0.000 OA
ENDBRANCH  17  21
ENDBRANCH  15  17
ENDBRANCH   1  15
BRANCH  13  24
ATOM     24  C   UNL     1     -67.906 -48.205 -54.827  0.00  0.00    +0.000 C 
ATOM     25  O   UNL     1     -68.706 -47.286 -54.782  0.00  0.00    +0.000 OA
BRANCH  24  26
ATOM     26  C   UNL     1     -68.212 -49.497 -54.186  0.00  0.00    +0.000 C 
ATOM     27  C   UNL     1     -67.691 -50.771 -54.800  0.00  0.00    +0.000 C 
ATOM     28  C   UNL     1     -69.161 -50.483 -54.825  0.00  0.00    +0.000 C 
ENDBRANCH  24  26
ENDBRANCH  13  24
TORSDOF 5
