REMARK VINA RESULT:    -6.665     11.225     13.677
REMARK INTER + INTRA:          -9.556
REMARK INTER:                  -8.669
REMARK INTRA:                  -0.888
REMARK UNBOUND:                -0.943
REMARK  Name = 
REMARK  6 active torsions:
REMARK  status: ('A' for Active; 'I' for Inactive)
REMARK    1  A    between atoms: C_1  and  C_2
REMARK    2  A    between atoms: C_4  and  C_5
REMARK    3  A    between atoms: C_5  and  S_6
REMARK    4  A    between atoms: S_6  and  C_8
REMARK    5  A    between atoms: C_20  and  C_21
REMARK    6  A    between atoms: C_21  and  C_23
REMARK                            x       y       z     vdW  Elec       q    Type
REMARK                         _______ _______ _______ _____ _____    ______ ____
ROOT
ATOM      1  C   UNL     1     -57.730 -41.056 -62.707  0.00  0.00    +0.000 A 
ATOM      2  N   UNL     1     -57.249 -39.784 -62.340  0.00  0.00    +0.000 N 
ATOM      3  C   UNL     1     -56.170 -39.187 -63.048  0.00  0.00    +0.000 A 
ATOM      4  C   UNL     1     -55.896 -37.807 -63.009  0.00  0.00    +0.000 A 
ATOM      5 BR   UNL     1     -57.070 -36.600 -62.137  0.00  0.00    +0.000 Br
ATOM      6  C   UNL     1     -54.758 -37.276 -63.632  0.00  0.00    +0.000 A 
ATOM      7  C   UNL     1     -53.891 -38.125 -64.331  0.00  0.00    +0.000 A 
ATOM      8  C   UNL     1     -54.144 -39.495 -64.386  0.00  0.00    +0.000 A 
ATOM      9 CL   UNL     1     -53.055 -40.445 -65.332  0.00  0.00    +0.000 Cl
ATOM     10  C   UNL     1     -55.266 -40.020 -63.727  0.00  0.00    +0.000 A 
ATOM     11  C   UNL     1     -55.567 -41.463 -63.658  0.00  0.00    +0.000 A 
ATOM     12  O   UNL     1     -54.681 -42.307 -63.666  0.00  0.00    +0.000 OA
ATOM     13  C   UNL     1     -57.000 -41.875 -63.495  0.00  0.00    +0.000 A 
ATOM     14  H   UNL     1     -58.010 -39.129 -62.116  0.00  0.00    +0.000 HD
ENDROOT
BRANCH   1  15
ATOM     15  S   UNL     1     -59.507 -41.241 -62.404  0.00  0.00    +0.000 S 
ATOM     16  O   UNL     1     -60.008 -39.830 -62.264  0.00  0.00    +0.000 OA
BRANCH  15  17
ATOM     17  C   UNL     1     -59.767 -42.071 -60.809  0.00  0.00    +0.000 C 
BRANCH  17  21
ATOM     18  C   UNL     1     -61.829 -46.661 -59.860  0.00  0.00    +0.000 C 
ATOM     19  C   UNL     1     -61.165 -45.426 -60.314  0.00  0.00    +0.000 A 
ATOM     20  C   UNL     1     -61.097 -44.135 -59.845  0.00  0.00    +0.000 A 
ATOM     21  C   UNL     1     -60.202 -43.485 -60.723  0.00  0.00    +0.000 A 
ATOM     22  N   UNL     1     -59.812 -44.319 -61.702  0.00  0.00    +0.000 NA
ATOM     23  O   UNL     1     -60.415 -45.531 -61.441  0.00  0.00    +0.000 OA
ENDBRANCH  17  21
ENDBRANCH  15  17
ENDBRANCH   1  15
BRANCH  13  24
ATOM     24  C   UNL     1     -57.399 -43.015 -64.370  0.00  0.00    +0.000 C 
ATOM     25  O   UNL     1     -57.378 -44.158 -63.947  0.00  0.00    +0.000 OA
BRANCH  24  26
ATOM     26  C   UNL     1     -57.864 -42.730 -65.740  0.00  0.00    +0.000 C 
ATOM     27  C   UNL     1     -57.864 -43.833 -66.767  0.00  0.00    +0.000 C 
ATOM     28  C   UNL     1     -56.900 -42.694 -66.903  0.00  0.00    +0.000 C 
ENDBRANCH  24  26
ENDBRANCH  13  24
TORSDOF 5
