REMARK VINA RESULT:    -5.879     15.718     16.644
REMARK INTER + INTRA:          -8.183
REMARK INTER:                  -7.634
REMARK INTRA:                  -0.550
REMARK UNBOUND:                -0.930
REMARK  Name = 
REMARK  6 active torsions:
REMARK  status: ('A' for Active; 'I' for Inactive)
REMARK    1  A    between atoms: C_1  and  C_2
REMARK    2  A    between atoms: C_2  and  C_4
REMARK    3  A    between atoms: C_5  and  S_6
REMARK    4  A    between atoms: S_6  and  C_8
REMARK    5  A    between atoms: C_8  and  C_9
REMARK    6  A    between atoms: C_11  and  C_12
REMARK                            x       y       z     vdW  Elec       q    Type
REMARK                         _______ _______ _______ _____ _____    ______ ____
ROOT
ATOM      1  C   UNL     1     -55.516 -41.731 -78.837  0.00  0.00    +0.000 A 
ATOM      2  C   UNL     1     -54.210 -41.506 -79.111  0.00  0.00    +0.000 A 
ATOM      3  N   UNL     1     -53.696 -41.465 -80.397  0.00  0.00    +0.000 N 
ATOM      4  C   UNL     1     -54.430 -41.960 -81.492  0.00  0.00    +0.000 A 
ATOM      5  C   UNL     1     -53.821 -42.165 -82.741  0.00  0.00    +0.000 A 
ATOM      6 BR   UNL     1     -51.968 -41.832 -82.989  0.00  0.00    +0.000 Br
ATOM      7  C   UNL     1     -54.558 -42.634 -83.825  0.00  0.00    +0.000 A 
ATOM      8  C   UNL     1     -55.920 -42.899 -83.670  0.00  0.00    +0.000 A 
ATOM      9  C   UNL     1     -56.556 -42.668 -82.440  0.00  0.00    +0.000 A 
ATOM     10 CL   UNL     1     -58.223 -43.097 -82.351  0.00  0.00    +0.000 Cl
ATOM     11  C   UNL     1     -55.813 -42.168 -81.360  0.00  0.00    +0.000 A 
ATOM     12  C   UNL     1     -56.409 -41.815 -80.041  0.00  0.00    +0.000 A 
ATOM     13  O   UNL     1     -57.603 -41.556 -79.939  0.00  0.00    +0.000 OA
ATOM     14  H   UNL     1     -52.694 -41.666 -80.447  0.00  0.00    +0.000 HD
ENDROOT
BRANCH   1  16
ATOM     15  C   UNL     1     -56.599 -40.649 -76.732  0.00  0.00    +0.000 C 
ATOM     16  C   UNL     1     -56.105 -41.880 -77.468  0.00  0.00    +0.000 C 
ATOM     17  O   UNL     1     -56.202 -42.985 -76.936  0.00  0.00    +0.000 OA
ENDBRANCH   1  16
BRANCH   2  18
ATOM     18  S   UNL     1     -52.958 -41.389 -77.790  0.00  0.00    +0.000 S 
ATOM     19  O   UNL     1     -51.659 -41.553 -78.533  0.00  0.00    +0.000 OA
BRANCH  18  20
ATOM     20  C   UNL     1     -53.132 -39.595 -77.454  0.00  0.00    +0.000 C 
BRANCH  20  21
ATOM     21  C   UNL     1     -52.013 -39.004 -76.660  0.00  0.00    +0.000 A 
ATOM     22  C   UNL     1     -50.937 -39.619 -75.968  0.00  0.00    +0.000 A 
ATOM     23  C   UNL     1     -50.176 -38.574 -75.505  0.00  0.00    +0.000 A 
ATOM     24  C   UNL     1     -48.931 -38.456 -74.723  0.00  0.00    +0.000 C 
ATOM     25  O   UNL     1     -50.744 -37.405 -75.901  0.00  0.00    +0.000 OA
ATOM     26  N   UNL     1     -51.886 -37.667 -76.628  0.00  0.00    +0.000 NA
ENDBRANCH  20  21
ENDBRANCH  18  20
ENDBRANCH   2  18
TORSDOF 4
