REMARK VINA RESULT:    -4.897     22.872     24.190
REMARK INTER + INTRA:          -6.712
REMARK INTER:                  -6.031
REMARK INTRA:                  -0.681
REMARK UNBOUND:                -0.670
REMARK  Name = 
REMARK  6 active torsions:
REMARK  status: ('A' for Active; 'I' for Inactive)
REMARK    1  A    between atoms: C_1  and  C_2
REMARK    2  A    between atoms: C_2  and  C_4
REMARK    3  A    between atoms: C_5  and  S_6
REMARK    4  A    between atoms: S_6  and  C_8
REMARK    5  A    between atoms: C_8  and  C_9
REMARK    6  A    between atoms: C_11  and  C_12
REMARK                            x       y       z     vdW  Elec       q    Type
REMARK                         _______ _______ _______ _____ _____    ______ ____
ROOT
ATOM      1  C   UNL     1     -65.306 -47.568 -56.011  0.00  0.00    +0.000 A 
ATOM      2  C   UNL     1     -66.377 -47.812 -56.800  0.00  0.00    +0.000 A 
ATOM      3  N   UNL     1     -67.283 -48.826 -56.556  0.00  0.00    +0.000 N 
ATOM      4  C   UNL     1     -67.104 -49.781 -55.542  0.00  0.00    +0.000 A 
ATOM      5  C   UNL     1     -68.041 -50.814 -55.346  0.00  0.00    +0.000 A 
ATOM      6 BR   UNL     1     -69.537 -51.005 -56.500  0.00  0.00    +0.000 Br
ATOM      7  C   UNL     1     -67.897 -51.730 -54.306  0.00  0.00    +0.000 A 
ATOM      8  C   UNL     1     -66.816 -51.618 -53.437  0.00  0.00    +0.000 A 
ATOM      9  C   UNL     1     -65.878 -50.588 -53.597  0.00  0.00    +0.000 A 
ATOM     10 CL   UNL     1     -64.597 -50.584 -52.436  0.00  0.00    +0.000 Cl
ATOM     11  C   UNL     1     -66.031 -49.655 -54.640  0.00  0.00    +0.000 A 
ATOM     12  C   UNL     1     -65.079 -48.536 -54.879  0.00  0.00    +0.000 A 
ATOM     13  O   UNL     1     -64.078 -48.431 -54.184  0.00  0.00    +0.000 OA
ATOM     14  H   UNL     1     -67.837 -49.131 -57.359  0.00  0.00    +0.000 HD
ENDROOT
BRANCH   1  16
ATOM     15  C   UNL     1     -64.604 -45.097 -55.584  0.00  0.00    +0.000 C 
ATOM     16  C   UNL     1     -64.323 -46.443 -56.215  0.00  0.00    +0.000 C 
ATOM     17  O   UNL     1     -63.308 -46.583 -56.899  0.00  0.00    +0.000 OA
ENDBRANCH   1  16
BRANCH   2  18
ATOM     18  S   UNL     1     -66.611 -46.914 -58.375  0.00  0.00    +0.000 S 
ATOM     19  O   UNL     1     -65.813 -47.723 -59.362  0.00  0.00    +0.000 OA
BRANCH  18  20
ATOM     20  C   UNL     1     -68.366 -47.307 -58.700  0.00  0.00    +0.000 C 
BRANCH  20  21
ATOM     21  C   UNL     1     -68.858 -46.761 -60.004  0.00  0.00    +0.000 A 
ATOM     22  C   UNL     1     -69.907 -47.205 -60.854  0.00  0.00    +0.000 A 
ATOM     23  C   UNL     1     -69.947 -46.284 -61.871  0.00  0.00    +0.000 A 
ATOM     24  C   UNL     1     -70.771 -46.118 -63.086  0.00  0.00    +0.000 C 
ATOM     25  O   UNL     1     -69.001 -45.338 -61.649  0.00  0.00    +0.000 OA
ATOM     26  N   UNL     1     -68.320 -45.628 -60.480  0.00  0.00    +0.000 NA
ENDBRANCH  20  21
ENDBRANCH  18  20
ENDBRANCH   2  18
TORSDOF 4
