REMARK VINA RESULT:    -6.155     12.847     14.387
REMARK INTER + INTRA:          -8.398
REMARK INTER:                  -7.316
REMARK INTRA:                  -1.082
REMARK UNBOUND:                -0.804
REMARK  Name = 
REMARK  6 active torsions:
REMARK  status: ('A' for Active; 'I' for Inactive)
REMARK    1  A    between atoms: C_1  and  C_2
REMARK    2  A    between atoms: C_2  and  C_4
REMARK    3  A    between atoms: C_5  and  S_6
REMARK    4  A    between atoms: S_6  and  C_8
REMARK    5  A    between atoms: C_8  and  C_9
REMARK    6  A    between atoms: C_11  and  C_12
REMARK                            x       y       z     vdW  Elec       q    Type
REMARK                         _______ _______ _______ _____ _____    ______ ____
ROOT
ATOM      1  C   UNL     1     -54.609 -43.293 -75.215  0.00  0.00    +0.000 A 
ATOM      2  C   UNL     1     -55.394 -43.642 -76.258  0.00  0.00    +0.000 A 
ATOM      3  N   UNL     1     -56.757 -43.430 -76.279  0.00  0.00    +0.000 N 
ATOM      4  C   UNL     1     -57.468 -42.892 -75.196  0.00  0.00    +0.000 A 
ATOM      5  C   UNL     1     -58.844 -42.618 -75.300  0.00  0.00    +0.000 A 
ATOM      6 BR   UNL     1     -59.805 -43.030 -76.887  0.00  0.00    +0.000 Br
ATOM      7  C   UNL     1     -59.540 -42.023 -74.250  0.00  0.00    +0.000 A 
ATOM      8  C   UNL     1     -58.866 -41.694 -73.077  0.00  0.00    +0.000 A 
ATOM      9  C   UNL     1     -57.493 -41.937 -72.955  0.00  0.00    +0.000 A 
ATOM     10 CL   UNL     1     -56.793 -41.471 -71.444  0.00  0.00    +0.000 Cl
ATOM     11  C   UNL     1     -56.783 -42.513 -74.027  0.00  0.00    +0.000 A 
ATOM     12  C   UNL     1     -55.318 -42.772 -73.993  0.00  0.00    +0.000 A 
ATOM     13  O   UNL     1     -54.686 -42.600 -72.958  0.00  0.00    +0.000 OA
ATOM     14  H   UNL     1     -57.294 -44.009 -76.923  0.00  0.00    +0.000 HD
ENDROOT
BRANCH   1  16
ATOM     15  C   UNL     1     -52.498 -44.678 -74.635  0.00  0.00    +0.000 C 
ATOM     16  C   UNL     1     -53.113 -43.412 -75.185  0.00  0.00    +0.000 C 
ATOM     17  O   UNL     1     -52.381 -42.493 -75.562  0.00  0.00    +0.000 OA
ENDBRANCH   1  16
BRANCH   2  18
ATOM     18  S   UNL     1     -54.717 -44.555 -77.690  0.00  0.00    +0.000 S 
ATOM     19  O   UNL     1     -55.737 -45.636 -77.930  0.00  0.00    +0.000 OA
BRANCH  18  20
ATOM     20  C   UNL     1     -54.998 -43.303 -78.992  0.00  0.00    +0.000 C 
BRANCH  20  21
ATOM     21  C   UNL     1     -54.196 -42.066 -78.760  0.00  0.00    +0.000 A 
ATOM     22  C   UNL     1     -54.629 -40.792 -78.314  0.00  0.00    +0.000 A 
ATOM     23  C   UNL     1     -53.475 -40.059 -78.185  0.00  0.00    +0.000 A 
ATOM     24  C   UNL     1     -53.167 -38.681 -77.759  0.00  0.00    +0.000 C 
ATOM     25  O   UNL     1     -52.415 -40.836 -78.533  0.00  0.00    +0.000 OA
ATOM     26  N   UNL     1     -52.861 -42.097 -78.887  0.00  0.00    +0.000 NA
ENDBRANCH  20  21
ENDBRANCH  18  20
ENDBRANCH   2  18
TORSDOF 4
