=
 OpenBabel09162515353D

 26 28  0  0  0  0  0  0  0  0999 V2000
  -55.7230  -42.3140  -62.7620 C   0  0  0  0  0  0  0  0  0  0  0  0
  -55.5180  -41.1290  -63.3840 C   0  0  0  0  0  0  0  0  0  0  0  0
  -54.3130  -40.8470  -63.9920 N   0  0  0  0  0  0  0  0  0  0  0  0
  -53.2420  -41.7430  -64.0600 C   0  0  0  0  0  0  0  0  0  0  0  0
  -52.0340  -41.3910  -64.6870 C   0  0  0  0  0  0  0  0  0  0  0  0
  -51.8420  -39.7180  -65.5650 Br  0  0  0  0  0  0  0  0  0  0  0  0
  -50.9410  -42.2570  -64.6930 C   0  0  0  0  0  3  0  0  0  0  0  0
  -51.0350  -43.4910  -64.0530 C   0  0  0  0  0  3  0  0  0  0  0  0
  -52.2180  -43.8660  -63.4170 C   0  0  0  0  0  0  0  0  0  0  0  0
  -52.1840  -45.4140  -62.6420 Cl  0  0  0  0  0  0  0  0  0  0  0  0
  -53.3190  -42.9850  -63.4270 C   0  0  0  0  0  0  0  0  0  0  0  0
  -54.6160  -43.3320  -62.8190 C   0  0  0  0  0  0  0  0  0  0  0  0
  -54.7680  -44.4750  -62.4070 O   0  0  0  0  0  0  0  0  0  0  0  0
  -54.3030  -40.0490  -64.6130 H   0  0  0  0  0  0  0  0  0  0  0  0
  -57.1300  -42.4350  -60.6180 C   0  0  0  0  0  1  0  0  0  0  0  0
  -56.9910  -42.7540  -62.1030 C   0  0  0  0  0  0  0  0  0  0  0  0
  -57.8490  -43.3360  -62.7110 O   0  0  0  0  0  0  0  0  0  0  0  0
  -56.7570  -39.7660  -63.4060 S   0  0  1  0  0  0  0  0  0  0  0  0
  -56.6920  -39.2070  -62.0100 O   0  0  0  0  0  0  0  0  0  0  0  0
  -55.9770  -38.4850  -64.4980 C   0  0  0  0  0  2  0  0  0  0  0  0
  -55.2910  -37.4170  -63.7180 C   0  0  0  0  0  0  0  0  0  0  0  0
  -55.7530  -36.1210  -63.3820 C   0  0  0  0  0  3  0  0  0  0  0  0
  -54.6980  -35.5480  -62.7190 C   0  0  0  0  0  0  0  0  0  0  0  0
  -54.4590  -34.2230  -62.1270 C   0  0  0  0  0  1  0  0  0  0  0  0
  -53.6800  -36.4420  -62.6290 O   0  0  0  0  0  0  0  0  0  0  0  0
  -54.0560  -37.6270  -63.2320 N   0  0  0  0  0  0  0  0  0  0  0  0
  1 16  1  0  0  0  0
  2  1  2  0  0  0  0
  3  2  1  0  0  0  0
  4  3  1  0  0  0  0
  4 11  1  0  0  0  0
  5  4  2  0  0  0  0
  6  5  1  0  0  0  0
  7  5  1  0  0  0  0
  7  8  2  0  0  0  0
  8  9  1  0  0  0  0
  9 10  1  0  0  0  0
 11  9  2  0  0  0  0
 11 12  1  0  0  0  0
 12  1  1  0  0  0  0
 12 13  2  0  0  0  0
 14  3  1  0  0  0  0
 16 15  1  0  0  0  0
 17 16  2  0  0  0  0
 18  2  1  0  0  0  0
 18 19  2  1  0  0  0
 20 21  1  0  0  0  0
 20 18  1  0  0  0  0
 21 22  1  0  0  0  0
 21 26  2  0  0  0  0
 22 23  2  0  0  0  0
 23 25  1  0  0  0  0
 23 24  1  0  0  0  0
 26 25  1  0  0  0  0
M  END
>  <MODEL>
1

>  <REMARK>
 VINA RESULT:    -6.540      0.000      0.000
 INTER + INTRA:          -9.105
 INTER:                  -8.069
 INTRA:                  -1.035
 UNBOUND:                -1.035
  Name = 
  6 active torsions:
  status: ('A' for Active; 'I' for Inactive)
    1  A    between atoms: C_1  and  C_2
    2  A    between atoms: C_2  and  C_4
    3  A    between atoms: C_5  and  S_6
    4  A    between atoms: S_6  and  C_8
    5  A    between atoms: C_8  and  C_9
    6  A    between atoms: C_11  and  C_12
                            x       y       z     vdW  Elec       q    Type
                         _______ _______ _______ _____ _____    ______ ____

>  <TORSDO>
F 4

$$$$
