REMARK VINA RESULT:    -6.337      2.818      5.791
REMARK INTER + INTRA:          -9.114
REMARK INTER:                  -7.798
REMARK INTRA:                  -1.316
REMARK UNBOUND:                -0.925
REMARK  Name = 
REMARK  8 active torsions:
REMARK  status: ('A' for Active; 'I' for Inactive)
REMARK    1  A    between atoms: C_1  and  C_2
REMARK    2  A    between atoms: C_4  and  C_5
REMARK    3  A    between atoms: C_5  and  S_6
REMARK    4  A    between atoms: S_6  and  C_8
REMARK    5  A    between atoms: C_20  and  C_21
REMARK    6  A    between atoms: C_21  and  C_23
REMARK    7  A    between atoms: C_23  and  C_24
REMARK    8  A    between atoms: C_23  and  C_25
REMARK                            x       y       z     vdW  Elec       q    Type
REMARK                         _______ _______ _______ _____ _____    ______ ____
ROOT
ATOM      1  C   UNL     1     -56.278 -41.870 -77.753  0.00  0.00    +0.000 A 
ATOM      2  N   UNL     1     -55.376 -40.824 -77.573  0.00  0.00    +0.000 N 
ATOM      3  C   UNL     1     -54.076 -41.044 -77.072  0.00  0.00    +0.000 A 
ATOM      4  C   UNL     1     -53.040 -40.105 -77.241  0.00  0.00    +0.000 A 
ATOM      5 CL   UNL     1     -53.274 -38.699 -78.220  0.00  0.00    +0.000 Cl
ATOM      6  C   UNL     1     -51.792 -40.295 -76.648  0.00  0.00    +0.000 A 
ATOM      7  C   UNL     1     -51.562 -41.437 -75.876  0.00  0.00    +0.000 A 
ATOM      8  C   UNL     1     -52.575 -42.390 -75.709  0.00  0.00    +0.000 A 
ATOM      9 CL   UNL     1     -52.151 -43.788 -74.791  0.00  0.00    +0.000 Cl
ATOM     10  C   UNL     1     -53.833 -42.186 -76.296  0.00  0.00    +0.000 A 
ATOM     11  C   UNL     1     -55.001 -43.085 -76.120  0.00  0.00    +0.000 A 
ATOM     12  O   UNL     1     -55.093 -43.754 -75.098  0.00  0.00    +0.000 OA
ATOM     13  C   UNL     1     -56.104 -43.090 -77.171  0.00  0.00    +0.000 A 
ATOM     14  H   UNL     1     -55.454 -40.086 -78.286  0.00  0.00    +0.000 HD
ENDROOT
BRANCH   1  15
ATOM     15  S   UNL     1     -57.529 -41.454 -79.034  0.00  0.00    +0.000 S 
ATOM     16  O   UNL     1     -58.786 -42.110 -78.529  0.00  0.00    +0.000 OA
BRANCH  15  17
ATOM     17  C   UNL     1     -56.954 -42.415 -80.493  0.00  0.00    +0.000 C 
BRANCH  17  21
ATOM     18  C   UNL     1     -52.156 -41.944 -82.360  0.00  0.00    +0.000 C 
ATOM     19  C   UNL     1     -53.523 -41.872 -81.804  0.00  0.00    +0.000 A 
ATOM     20  C   UNL     1     -54.569 -42.756 -81.668  0.00  0.00    +0.000 A 
ATOM     21  C   UNL     1     -55.585 -42.025 -80.990  0.00  0.00    +0.000 A 
ATOM     22  N   UNL     1     -55.172 -40.765 -80.769  0.00  0.00    +0.000 NA
ATOM     23  O   UNL     1     -53.888 -40.677 -81.271  0.00  0.00    +0.000 OA
ENDBRANCH  17  21
ENDBRANCH  15  17
ENDBRANCH   1  15
BRANCH  13  24
ATOM     24  C   UNL     1     -56.774 -44.433 -77.382  0.00  0.00    +0.000 C 
ATOM     25  O   UNL     1     -57.944 -44.601 -77.013  0.00  0.00    +0.000 OA
BRANCH  24  26
ATOM     26  C   UNL     1     -56.018 -45.643 -77.896  0.00  0.00    +0.000 C 
ATOM     27  C   UNL     1     -56.975 -46.806 -78.079  0.00  0.00    +0.000 C 
ATOM     28  C   UNL     1     -55.213 -45.314 -79.147  0.00  0.00    +0.000 C 
ENDBRANCH  24  26
ENDBRANCH  13  24
TORSDOF 5
