REMARK VINA RESULT:    -5.985      3.602      6.450
REMARK INTER + INTRA:          -8.031
REMARK INTER:                  -7.449
REMARK INTRA:                  -0.582
REMARK UNBOUND:                -0.647
REMARK  Name = 
REMARK  6 active torsions:
REMARK  status: ('A' for Active; 'I' for Inactive)
REMARK    1  A    between atoms: C_1  and  C_2
REMARK    2  A    between atoms: C_2  and  C_4
REMARK    3  A    between atoms: C_5  and  S_6
REMARK    4  A    between atoms: S_6  and  C_8
REMARK    5  A    between atoms: C_8  and  C_9
REMARK    6  A    between atoms: C_11  and  C_12
REMARK                            x       y       z     vdW  Elec       q    Type
REMARK                         _______ _______ _______ _____ _____    ______ ____
ROOT
ATOM      1  C   UNL     1     -54.760 -42.420 -77.408  0.00  0.00    +0.000 A 
ATOM      2  C   UNL     1     -55.928 -42.816 -78.008  0.00  0.00    +0.000 A 
ATOM      3  N   UNL     1     -56.462 -44.057 -77.778  0.00  0.00    +0.000 N 
ATOM      4  C   UNL     1     -55.808 -45.074 -77.073  0.00  0.00    +0.000 A 
ATOM      5  C   UNL     1     -56.333 -46.383 -77.056  0.00  0.00    +0.000 A 
ATOM      6 BR   UNL     1     -57.911 -46.828 -78.021  0.00  0.00    +0.000 Br
ATOM      7  C   UNL     1     -55.704 -47.391 -76.335  0.00  0.00    +0.000 A 
ATOM      8  C   UNL     1     -54.532 -47.104 -75.638  0.00  0.00    +0.000 A 
ATOM      9  C   UNL     1     -53.987 -45.814 -75.663  0.00  0.00    +0.000 A 
ATOM     10 CL   UNL     1     -52.507 -45.611 -74.793  0.00  0.00    +0.000 Cl
ATOM     11  C   UNL     1     -54.636 -44.794 -76.382  0.00  0.00    +0.000 A 
ATOM     12  C   UNL     1     -54.178 -43.391 -76.410  0.00  0.00    +0.000 A 
ATOM     13  O   UNL     1     -53.351 -43.014 -75.588  0.00  0.00    +0.000 OA
ATOM     14  H   UNL     1     -57.315 -44.299 -78.283  0.00  0.00    +0.000 HD
ENDROOT
BRANCH   1  16
ATOM     15  C   UNL     1     -52.742 -41.171 -78.502  0.00  0.00    +0.000 C 
ATOM     16  C   UNL     1     -54.002 -41.139 -77.636  0.00  0.00    +0.000 C 
ATOM     17  O   UNL     1     -54.382 -40.097 -77.149  0.00  0.00    +0.000 OA
ENDBRANCH   1  16
BRANCH   2  18
ATOM     18  S   UNL     1     -56.813 -41.851 -79.304  0.00  0.00    +0.000 S 
ATOM     19  O   UNL     1     -56.697 -42.731 -80.531  0.00  0.00    +0.000 OA
BRANCH  18  20
ATOM     20  C   UNL     1     -58.565 -42.039 -78.755  0.00  0.00    +0.000 C 
BRANCH  20  21
ATOM     21  C   UNL     1     -59.472 -40.889 -79.055  0.00  0.00    +0.000 A 
ATOM     22  C   UNL     1     -59.854 -39.772 -78.272  0.00  0.00    +0.000 A 
ATOM     23  C   UNL     1     -60.652 -39.026 -79.111  0.00  0.00    +0.000 A 
ATOM     24  C   UNL     1     -61.366 -37.748 -78.974  0.00  0.00    +0.000 C 
ATOM     25  O   UNL     1     -60.753 -39.650 -80.312  0.00  0.00    +0.000 OA
ATOM     26  N   UNL     1     -60.008 -40.811 -80.285  0.00  0.00    +0.000 NA
ENDBRANCH  20  21
ENDBRANCH  18  20
ENDBRANCH   2  18
TORSDOF 4
