REMARK VINA RESULT:    -5.277     25.158     27.103
REMARK INTER + INTRA:          -7.553
REMARK INTER:                  -6.593
REMARK INTRA:                  -0.960
REMARK UNBOUND:                -1.042
REMARK  Name = 
REMARK  6 active torsions:
REMARK  status: ('A' for Active; 'I' for Inactive)
REMARK    1  A    between atoms: C_1  and  C_2
REMARK    2  A    between atoms: C_2  and  C_4
REMARK    3  A    between atoms: C_5  and  S_6
REMARK    4  A    between atoms: S_6  and  C_8
REMARK    5  A    between atoms: C_8  and  C_9
REMARK    6  A    between atoms: C_11  and  C_12
REMARK                            x       y       z     vdW  Elec       q    Type
REMARK                         _______ _______ _______ _____ _____    ______ ____
ROOT
ATOM      1  C   UNL     1     -66.813 -51.680 -53.180  0.00  0.00    +0.000 A 
ATOM      2  C   UNL     1     -66.086 -50.583 -53.489  0.00  0.00    +0.000 A 
ATOM      3  N   UNL     1     -66.429 -49.704 -54.498  0.00  0.00    +0.000 N 
ATOM      4  C   UNL     1     -67.509 -49.923 -55.365  0.00  0.00    +0.000 A 
ATOM      5  C   UNL     1     -67.825 -48.990 -56.373  0.00  0.00    +0.000 A 
ATOM      6 BR   UNL     1     -66.751 -47.443 -56.638  0.00  0.00    +0.000 Br
ATOM      7  C   UNL     1     -68.928 -49.169 -57.199  0.00  0.00    +0.000 A 
ATOM      8  C   UNL     1     -69.744 -50.285 -57.026  0.00  0.00    +0.000 A 
ATOM      9  C   UNL     1     -69.464 -51.218 -56.019  0.00  0.00    +0.000 A 
ATOM     10 CL   UNL     1     -70.557 -52.555 -55.935  0.00  0.00    +0.000 Cl
ATOM     11  C   UNL     1     -68.354 -51.027 -55.170  0.00  0.00    +0.000 A 
ATOM     12  C   UNL     1     -67.995 -51.964 -54.068  0.00  0.00    +0.000 A 
ATOM     13  O   UNL     1     -68.641 -52.993 -53.906  0.00  0.00    +0.000 OA
ATOM     14  H   UNL     1     -65.673 -49.124 -54.862  0.00  0.00    +0.000 HD
ENDROOT
BRANCH   1  16
ATOM     15  C   UNL     1     -65.738 -53.900 -52.353  0.00  0.00    +0.000 C 
ATOM     16  C   UNL     1     -66.496 -52.627 -52.050  0.00  0.00    +0.000 C 
ATOM     17  O   UNL     1     -66.857 -52.403 -50.896  0.00  0.00    +0.000 OA
ENDBRANCH   1  16
BRANCH   2  18
ATOM     18  S   UNL     1     -64.488 -50.245 -52.678  0.00  0.00    +0.000 S 
ATOM     19  O   UNL     1     -63.632 -49.711 -53.798  0.00  0.00    +0.000 OA
BRANCH  18  20
ATOM     20  C   UNL     1     -64.969 -48.794 -51.677  0.00  0.00    +0.000 C 
BRANCH  20  21
ATOM     21  C   UNL     1     -64.499 -47.505 -52.266  0.00  0.00    +0.000 A 
ATOM     22  C   UNL     1     -63.330 -46.747 -51.994  0.00  0.00    +0.000 A 
ATOM     23  C   UNL     1     -63.400 -45.679 -52.853  0.00  0.00    +0.000 A 
ATOM     24  C   UNL     1     -62.561 -44.491 -53.098  0.00  0.00    +0.000 C 
ATOM     25  O   UNL     1     -64.517 -45.799 -53.620  0.00  0.00    +0.000 OA
ATOM     26  N   UNL     1     -65.203 -46.945 -53.261  0.00  0.00    +0.000 NA
ENDBRANCH  20  21
ENDBRANCH  18  20
ENDBRANCH   2  18
TORSDOF 4
