REMARK VINA RESULT:    -5.070      5.008      7.437
REMARK INTER + INTRA:          -7.439
REMARK INTER:                  -6.709
REMARK INTRA:                  -0.730
REMARK UNBOUND:                -0.887
REMARK  Name = 
REMARK  8 active torsions:
REMARK  status: ('A' for Active; 'I' for Inactive)
REMARK    1  A    between atoms: C_1  and  C_2
REMARK    2  A    between atoms: C_4  and  C_5
REMARK    3  A    between atoms: C_5  and  S_6
REMARK    4  A    between atoms: S_6  and  C_8
REMARK    5  A    between atoms: C_20  and  C_21
REMARK    6  A    between atoms: C_21  and  C_23
REMARK    7  A    between atoms: C_23  and  C_24
REMARK    8  A    between atoms: C_23  and  C_25
REMARK                            x       y       z     vdW  Elec       q    Type
REMARK                         _______ _______ _______ _____ _____    ______ ____
ROOT
ATOM      1  C   UNL     1     -60.178 -42.141 -60.923  0.00  0.00    +0.000 A 
ATOM      2  N   UNL     1     -60.396 -40.869 -61.443  0.00  0.00    +0.000 N 
ATOM      3  C   UNL     1     -61.433 -40.043 -60.967  0.00  0.00    +0.000 A 
ATOM      4  C   UNL     1     -61.427 -38.649 -61.155  0.00  0.00    +0.000 A 
ATOM      5 BR   UNL     1     -59.931 -37.775 -61.927  0.00  0.00    +0.000 Br
ATOM      6  C   UNL     1     -62.507 -37.863 -60.741  0.00  0.00    +0.000 A 
ATOM      7  C   UNL     1     -63.605 -38.458 -60.128  0.00  0.00    +0.000 A 
ATOM      8  C   UNL     1     -63.627 -39.850 -59.923  0.00  0.00    +0.000 A 
ATOM      9 CL   UNL     1     -65.008 -40.464 -59.089  0.00  0.00    +0.000 Cl
ATOM     10  C   UNL     1     -62.541 -40.644 -60.347  0.00  0.00    +0.000 A 
ATOM     11  C   UNL     1     -62.483 -42.122 -60.207  0.00  0.00    +0.000 A 
ATOM     12  O   UNL     1     -63.520 -42.772 -60.115  0.00  0.00    +0.000 OA
ATOM     13  C   UNL     1     -61.116 -42.800 -60.203  0.00  0.00    +0.000 A 
ATOM     14  H   UNL     1     -59.537 -40.387 -61.743  0.00  0.00    +0.000 HD
ENDROOT
BRANCH   1  15
ATOM     15  S   UNL     1     -58.438 -42.670 -61.151  0.00  0.00    +0.000 S 
ATOM     16  O   UNL     1     -57.723 -41.402 -61.529  0.00  0.00    +0.000 OA
BRANCH  15  17
ATOM     17  C   UNL     1     -58.518 -43.748 -62.621  0.00  0.00    +0.000 C 
BRANCH  17  21
ATOM     18  C   UNL     1     -57.114 -41.668 -67.149  0.00  0.00    +0.000 C 
ATOM     19  C   UNL     1     -57.312 -42.275 -65.815  0.00  0.00    +0.000 A 
ATOM     20  C   UNL     1     -58.402 -42.538 -65.016  0.00  0.00    +0.000 A 
ATOM     21  C   UNL     1     -57.868 -43.173 -63.858  0.00  0.00    +0.000 A 
ATOM     22  N   UNL     1     -56.531 -43.260 -63.962  0.00  0.00    +0.000 NA
ATOM     23  O   UNL     1     -56.191 -42.704 -65.181  0.00  0.00    +0.000 OA
ENDBRANCH  17  21
ENDBRANCH  15  17
ENDBRANCH   1  15
BRANCH  13  24
ATOM     24  C   UNL     1     -60.988 -44.065 -59.383  0.00  0.00    +0.000 C 
ATOM     25  O   UNL     1     -60.314 -44.069 -58.353  0.00  0.00    +0.000 OA
BRANCH  24  26
ATOM     26  C   UNL     1     -61.637 -45.364 -59.860  0.00  0.00    +0.000 C 
ATOM     27  C   UNL     1     -61.049 -45.838 -61.186  0.00  0.00    +0.000 C 
ATOM     28  C   UNL     1     -61.538 -46.473 -58.809  0.00  0.00    +0.000 C 
ENDBRANCH  24  26
ENDBRANCH  13  24
TORSDOF 5
