=
 OpenBabel09162514593D

 28 30  0  0  0  0  0  0  0  0999 V2000
  -55.4290  -42.0090  -62.9210 C   0  0  0  0  0  0  0  0  0  0  0  0
  -54.6820  -43.1780  -63.0210 N   0  0  0  0  0  0  0  0  0  0  0  0
  -53.3270  -43.1590  -63.4040 C   0  0  0  0  0  0  0  0  0  0  0  0
  -52.4520  -44.2240  -63.1190 C   0  0  0  0  0  0  0  0  0  0  0  0
  -53.0130  -45.6870  -62.0490 Br  0  0  0  0  0  0  0  0  0  0  0  0
  -51.1330  -44.2140  -63.5790 C   0  0  0  0  0  3  0  0  0  0  0  0
  -50.6670  -43.1370  -64.3270 C   0  0  0  0  0  3  0  0  0  0  0  0
  -51.5220  -42.0590  -64.6180 C   0  0  0  0  0  0  0  0  0  0  0  0
  -50.8120  -40.7490  -65.4910 Cl  0  0  0  0  0  0  0  0  0  0  0  0
  -52.8560  -42.0730  -64.1590 C   0  0  0  0  0  0  0  0  0  0  0  0
  -53.8460  -41.0010  -64.4390 C   0  0  0  0  0  0  0  0  0  0  0  0
  -53.7040  -40.2720  -65.4170 O   0  0  0  0  0  0  0  0  0  0  0  0
  -55.0410  -40.8490  -63.5020 C   0  0  0  0  0  0  0  0  0  0  0  0
  -54.9480  -43.9030  -62.3390 H   0  0  0  0  0  0  0  0  0  0  0  0
  -56.8310  -42.2040  -61.7570 S   0  0  2  0  0  0  0  0  0  0  0  0
  -56.2350  -42.9600  -60.6000 O   0  0  0  0  0  0  0  0  0  0  0  0
  -57.9670  -43.3170  -62.6510 C   0  0  0  0  0  2  0  0  0  0  0  0
  -58.2130  -42.7020  -67.7860 C   0  0  0  0  0  1  0  0  0  0  0  0
  -58.2760  -42.7190  -66.3080 C   0  0  0  0  0  0  0  0  0  0  0  0
  -57.7860  -43.5450  -65.3210 C   0  0  0  0  0  3  0  0  0  0  0  0
  -58.2010  -42.9460  -64.0970 C   0  0  0  0  0  0  0  0  0  0  0  0
  -58.9170  -41.8370  -64.3520 N   0  0  0  0  0  0  0  0  0  0  0  0
  -58.9570  -41.6990  -65.7270 O   0  0  0  0  0  0  0  0  0  0  0  0
  -55.5900  -39.4510  -63.3230 C   0  0  0  0  0  0  0  0  0  0  0  0
  -56.7610  -39.2050  -63.6070 O   0  0  0  0  0  0  0  0  0  0  0  0
  -54.6790  -38.3180  -62.8500 C   0  0  0  0  0  3  0  0  0  0  0  0
  -54.5890  -37.1960  -63.8810 C   0  0  0  0  0  1  0  0  0  0  0  0
  -55.1180  -37.7590  -61.4940 C   0  0  0  0  0  1  0  0  0  0  0  0
  1 15  1  0  0  0  0
  2  1  1  0  0  0  0
  2 14  1  0  0  0  0
  3  4  1  0  0  0  0
  3  2  1  0  0  0  0
  4  5  1  0  0  0  0
  6  4  2  0  0  0  0
  7  6  1  0  0  0  0
  8  7  2  0  0  0  0
  8 10  1  0  0  0  0
  9  8  1  0  0  0  0
 10  3  2  0  0  0  0
 11 10  1  0  0  0  0
 11 13  1  0  0  0  0
 12 11  2  0  0  0  0
 13 24  1  0  0  0  0
 13  1  2  0  0  0  0
 15 16  2  1  0  0  0
 17 15  1  0  0  0  0
 18 19  1  0  0  0  0
 19 23  1  0  0  0  0
 19 20  2  0  0  0  0
 20 21  1  0  0  0  0
 21 17  1  0  0  0  0
 22 21  2  0  0  0  0
 23 22  1  0  0  0  0
 24 26  1  0  0  0  0
 25 24  2  0  0  0  0
 26 28  1  0  0  0  0
 27 26  1  0  0  0  0
M  END
>  <MODEL>
1

>  <REMARK>
 VINA RESULT:    -7.279      0.000      0.000
 INTER + INTRA:         -10.534
 INTER:                  -9.407
 INTRA:                  -1.127
 UNBOUND:                -1.127
  Name = 
  8 active torsions:
  status: ('A' for Active; 'I' for Inactive)
    1  A    between atoms: C_1  and  C_2
    2  A    between atoms: C_4  and  C_5
    3  A    between atoms: C_5  and  S_6
    4  A    between atoms: S_6  and  C_8
    5  A    between atoms: C_20  and  C_21
    6  A    between atoms: C_21  and  C_23
    7  A    between atoms: C_23  and  C_24
    8  A    between atoms: C_23  and  C_25
                            x       y       z     vdW  Elec       q    Type
                         _______ _______ _______ _____ _____    ______ ____

>  <TORSDO>
F 5

$$$$
