REMARK VINA RESULT:    -5.196     14.256     16.307
REMARK INTER + INTRA:          -7.059
REMARK INTER:                  -6.267
REMARK INTRA:                  -0.792
REMARK UNBOUND:                -0.647
REMARK  Name = 
REMARK  6 active torsions:
REMARK  status: ('A' for Active; 'I' for Inactive)
REMARK    1  A    between atoms: C_1  and  C_2
REMARK    2  A    between atoms: C_2  and  C_4
REMARK    3  A    between atoms: C_5  and  S_6
REMARK    4  A    between atoms: S_6  and  C_8
REMARK    5  A    between atoms: C_8  and  C_9
REMARK    6  A    between atoms: C_11  and  C_12
REMARK                            x       y       z     vdW  Elec       q    Type
REMARK                         _______ _______ _______ _____ _____    ______ ____
ROOT
ATOM      1  C   UNL     1     -56.848 -35.701 -62.555  0.00  0.00    +0.000 A 
ATOM      2  C   UNL     1     -57.175 -37.028 -62.453  0.00  0.00    +0.000 A 
ATOM      3  N   UNL     1     -58.476 -37.431 -62.298  0.00  0.00    +0.000 N 
ATOM      4  C   UNL     1     -59.545 -36.558 -62.063  0.00  0.00    +0.000 A 
ATOM      5  C   UNL     1     -60.815 -37.062 -61.712  0.00  0.00    +0.000 A 
ATOM      6 BR   UNL     1     -61.114 -38.928 -61.498  0.00  0.00    +0.000 Br
ATOM      7  C   UNL     1     -61.887 -36.201 -61.504  0.00  0.00    +0.000 A 
ATOM      8  C   UNL     1     -61.695 -34.828 -61.628  0.00  0.00    +0.000 A 
ATOM      9  C   UNL     1     -60.435 -34.311 -61.955  0.00  0.00    +0.000 A 
ATOM     10 CL   UNL     1     -60.330 -32.588 -62.030  0.00  0.00    +0.000 Cl
ATOM     11  C   UNL     1     -59.357 -35.186 -62.179  0.00  0.00    +0.000 A 
ATOM     12  C   UNL     1     -58.013 -34.743 -62.596  0.00  0.00    +0.000 A 
ATOM     13  O   UNL     1     -57.862 -33.601 -63.015  0.00  0.00    +0.000 OA
ATOM     14  H   UNL     1     -58.647 -38.432 -62.194  0.00  0.00    +0.000 HD
ENDROOT
BRANCH   1  16
ATOM     15  C   UNL     1     -54.862 -34.490 -61.362  0.00  0.00    +0.000 C 
ATOM     16  C   UNL     1     -55.468 -35.102 -62.626  0.00  0.00    +0.000 C 
ATOM     17  O   UNL     1     -54.841 -35.106 -63.663  0.00  0.00    +0.000 OA
ENDBRANCH   1  16
BRANCH   2  18
ATOM     18  S   UNL     1     -55.950 -38.398 -62.321  0.00  0.00    +0.000 S 
ATOM     19  O   UNL     1     -55.494 -38.318 -60.879  0.00  0.00    +0.000 OA
BRANCH  18  20
ATOM     20  C   UNL     1     -57.057 -39.874 -62.382  0.00  0.00    +0.000 C 
BRANCH  20  21
ATOM     21  C   UNL     1     -57.274 -40.474 -63.734  0.00  0.00    +0.000 A 
ATOM     22  C   UNL     1     -56.514 -40.388 -64.927  0.00  0.00    +0.000 A 
ATOM     23  C   UNL     1     -57.181 -41.205 -65.814  0.00  0.00    +0.000 A 
ATOM     24  C   UNL     1     -56.950 -41.601 -67.209  0.00  0.00    +0.000 C 
ATOM     25  O   UNL     1     -58.270 -41.739 -65.205  0.00  0.00    +0.000 OA
ATOM     26  N   UNL     1     -58.327 -41.293 -63.900  0.00  0.00    +0.000 NA
ENDBRANCH  20  21
ENDBRANCH  18  20
ENDBRANCH   2  18
TORSDOF 4
