REMARK VINA RESULT:    -6.470      3.305      6.348
REMARK INTER + INTRA:          -9.517
REMARK INTER:                  -8.687
REMARK INTRA:                  -0.830
REMARK UNBOUND:                -1.155
REMARK  Name = 
REMARK  6 active torsions:
REMARK  status: ('A' for Active; 'I' for Inactive)
REMARK    1  A    between atoms: C_1  and  C_2
REMARK    2  A    between atoms: C_4  and  C_5
REMARK    3  A    between atoms: C_5  and  S_6
REMARK    4  A    between atoms: S_6  and  C_8
REMARK    5  A    between atoms: C_20  and  C_21
REMARK    6  A    between atoms: C_21  and  C_23
REMARK                            x       y       z     vdW  Elec       q    Type
REMARK                         _______ _______ _______ _____ _____    ______ ____
ROOT
ATOM      1  C   UNL     1     -55.209 -43.013 -61.550  0.00  0.00    +0.000 A 
ATOM      2  N   UNL     1     -55.422 -42.870 -60.165  0.00  0.00    +0.000 N 
ATOM      3  C   UNL     1     -56.664 -42.386 -59.670  0.00  0.00    +0.000 A 
ATOM      4  C   UNL     1     -57.090 -42.579 -58.343  0.00  0.00    +0.000 A 
ATOM      5 BR   UNL     1     -56.102 -43.671 -57.147  0.00  0.00    +0.000 Br
ATOM      6  C   UNL     1     -58.270 -41.991 -57.867  0.00  0.00    +0.000 A 
ATOM      7  C   UNL     1     -59.057 -41.220 -58.730  0.00  0.00    +0.000 A 
ATOM      8  C   UNL     1     -58.656 -41.016 -60.051  0.00  0.00    +0.000 A 
ATOM      9 CL   UNL     1     -59.732 -40.111 -61.054  0.00  0.00    +0.000 Cl
ATOM     10  C   UNL     1     -57.455 -41.581 -60.505  0.00  0.00    +0.000 A 
ATOM     11  C   UNL     1     -56.908 -41.350 -61.856  0.00  0.00    +0.000 A 
ATOM     12  O   UNL     1     -57.113 -40.307 -62.465  0.00  0.00    +0.000 OA
ATOM     13  C   UNL     1     -56.018 -42.404 -62.444  0.00  0.00    +0.000 A 
ATOM     14  H   UNL     1     -55.043 -43.663 -59.629  0.00  0.00    +0.000 HD
ENDROOT
BRANCH   1  15
ATOM     15  S   UNL     1     -54.097 -44.389 -61.944  0.00  0.00    +0.000 S 
ATOM     16  O   UNL     1     -53.916 -45.105 -60.634  0.00  0.00    +0.000 OA
BRANCH  15  17
ATOM     17  C   UNL     1     -52.475 -43.735 -62.436  0.00  0.00    +0.000 C 
BRANCH  17  21
ATOM     18  C   UNL     1     -48.797 -45.612 -65.465  0.00  0.00    +0.000 C 
ATOM     19  C   UNL     1     -49.918 -45.274 -64.568  0.00  0.00    +0.000 A 
ATOM     20  C   UNL     1     -50.370 -44.117 -63.979  0.00  0.00    +0.000 A 
ATOM     21  C   UNL     1     -51.558 -44.496 -63.316  0.00  0.00    +0.000 A 
ATOM     22  N   UNL     1     -51.767 -45.819 -63.443  0.00  0.00    +0.000 NA
ATOM     23  O   UNL     1     -50.739 -46.299 -64.227  0.00  0.00    +0.000 OA
ENDBRANCH  17  21
ENDBRANCH  15  17
ENDBRANCH   1  15
BRANCH  13  24
ATOM     24  C   UNL     1     -56.310 -42.705 -63.875  0.00  0.00    +0.000 C 
ATOM     25  O   UNL     1     -55.474 -42.493 -64.736  0.00  0.00    +0.000 OA
BRANCH  24  26
ATOM     26  C   UNL     1     -57.610 -43.308 -64.223  0.00  0.00    +0.000 C 
ATOM     27  C   UNL     1     -57.954 -43.541 -65.672  0.00  0.00    +0.000 C 
ATOM     28  C   UNL     1     -58.695 -42.498 -64.892  0.00  0.00    +0.000 C 
ENDBRANCH  24  26
ENDBRANCH  13  24
TORSDOF 5
