REMARK VINA RESULT:    -5.185     26.458     28.362
REMARK INTER + INTRA:          -7.067
REMARK INTER:                  -6.364
REMARK INTRA:                  -0.703
REMARK UNBOUND:                -0.670
REMARK  Name = 
REMARK  6 active torsions:
REMARK  status: ('A' for Active; 'I' for Inactive)
REMARK    1  A    between atoms: C_1  and  C_2
REMARK    2  A    between atoms: C_2  and  C_4
REMARK    3  A    between atoms: C_5  and  S_6
REMARK    4  A    between atoms: S_6  and  C_8
REMARK    5  A    between atoms: C_8  and  C_9
REMARK    6  A    between atoms: C_11  and  C_12
REMARK                            x       y       z     vdW  Elec       q    Type
REMARK                         _______ _______ _______ _____ _____    ______ ____
ROOT
ATOM      1  C   UNL     1     -66.433 -52.221 -53.039  0.00  0.00    +0.000 A 
ATOM      2  C   UNL     1     -67.453 -52.219 -53.927  0.00  0.00    +0.000 A 
ATOM      3  N   UNL     1     -67.640 -51.221 -54.863  0.00  0.00    +0.000 N 
ATOM      4  C   UNL     1     -66.867 -50.048 -54.894  0.00  0.00    +0.000 A 
ATOM      5  C   UNL     1     -67.110 -49.044 -55.850  0.00  0.00    +0.000 A 
ATOM      6 BR   UNL     1     -68.549 -49.197 -57.080  0.00  0.00    +0.000 Br
ATOM      7  C   UNL     1     -66.309 -47.906 -55.920  0.00  0.00    +0.000 A 
ATOM      8  C   UNL     1     -65.243 -47.762 -55.038  0.00  0.00    +0.000 A 
ATOM      9  C   UNL     1     -64.966 -48.755 -54.088  0.00  0.00    +0.000 A 
ATOM     10 CL   UNL     1     -63.607 -48.428 -53.070  0.00  0.00    +0.000 Cl
ATOM     11  C   UNL     1     -65.767 -49.911 -54.026  0.00  0.00    +0.000 A 
ATOM     12  C   UNL     1     -65.541 -51.008 -53.046  0.00  0.00    +0.000 A 
ATOM     13  O   UNL     1     -64.656 -50.901 -52.208  0.00  0.00    +0.000 OA
ATOM     14  H   UNL     1     -68.585 -51.137 -55.242  0.00  0.00    +0.000 HD
ENDROOT
BRANCH   1  16
ATOM     15  C   UNL     1     -66.712 -53.175 -50.631  0.00  0.00    +0.000 C 
ATOM     16  C   UNL     1     -66.166 -53.315 -52.036  0.00  0.00    +0.000 C 
ATOM     17  O   UNL     1     -65.496 -54.308 -52.321  0.00  0.00    +0.000 OA
ENDBRANCH   1  16
BRANCH   2  18
ATOM     18  S   UNL     1     -68.784 -53.469 -53.837  0.00  0.00    +0.000 S 
ATOM     19  O   UNL     1     -69.635 -52.992 -52.690  0.00  0.00    +0.000 OA
BRANCH  18  20
ATOM     20  C   UNL     1     -69.706 -53.052 -55.358  0.00  0.00    +0.000 C 
BRANCH  20  21
ATOM     21  C   UNL     1     -71.047 -53.713 -55.431  0.00  0.00    +0.000 A 
ATOM     22  C   UNL     1     -71.395 -55.077 -55.626  0.00  0.00    +0.000 A 
ATOM     23  C   UNL     1     -72.764 -55.105 -55.534  0.00  0.00    +0.000 A 
ATOM     24  C   UNL     1     -73.788 -56.166 -55.636  0.00  0.00    +0.000 C 
ATOM     25  O   UNL     1     -73.218 -53.851 -55.285  0.00  0.00    +0.000 OA
ATOM     26  N   UNL     1     -72.149 -52.977 -55.214  0.00  0.00    +0.000 NA
ENDBRANCH  20  21
ENDBRANCH  18  20
ENDBRANCH   2  18
TORSDOF 4
