REMARK VINA RESULT:    -6.267      3.254      5.315
REMARK INTER + INTRA:          -8.734
REMARK INTER:                  -7.830
REMARK INTRA:                  -0.903
REMARK UNBOUND:                -0.635
REMARK  Name = 
REMARK  6 active torsions:
REMARK  status: ('A' for Active; 'I' for Inactive)
REMARK    1  A    between atoms: C_1  and  C_2
REMARK    2  A    between atoms: C_4  and  C_5
REMARK    3  A    between atoms: C_5  and  S_6
REMARK    4  A    between atoms: S_6  and  C_8
REMARK    5  A    between atoms: C_20  and  C_21
REMARK    6  A    between atoms: C_21  and  C_23
REMARK                            x       y       z     vdW  Elec       q    Type
REMARK                         _______ _______ _______ _____ _____    ______ ____
ROOT
ATOM      1  C   UNL     1     -56.058 -41.735 -62.426  0.00  0.00    +0.000 A 
ATOM      2  N   UNL     1     -55.272 -42.894 -62.569  0.00  0.00    +0.000 N 
ATOM      3  C   UNL     1     -53.948 -42.812 -63.082  0.00  0.00    +0.000 A 
ATOM      4  C   UNL     1     -52.988 -43.825 -62.894  0.00  0.00    +0.000 A 
ATOM      5 BR   UNL     1     -53.342 -45.314 -61.775  0.00  0.00    +0.000 Br
ATOM      6  C   UNL     1     -51.730 -43.754 -63.509  0.00  0.00    +0.000 A 
ATOM      7  C   UNL     1     -51.408 -42.646 -64.302  0.00  0.00    +0.000 A 
ATOM      8  C   UNL     1     -52.342 -41.630 -64.501  0.00  0.00    +0.000 A 
ATOM      9 CL   UNL     1     -51.823 -40.274 -65.435  0.00  0.00    +0.000 Cl
ATOM     10  C   UNL     1     -53.611 -41.730 -63.909  0.00  0.00    +0.000 A 
ATOM     11  C   UNL     1     -54.691 -40.749 -64.131  0.00  0.00    +0.000 A 
ATOM     12  O   UNL     1     -54.790 -40.126 -65.181  0.00  0.00    +0.000 OA
ATOM     13  C   UNL     1     -55.726 -40.587 -63.058  0.00  0.00    +0.000 A 
ATOM     14  H   UNL     1     -55.367 -43.531 -61.766  0.00  0.00    +0.000 HD
ENDROOT
BRANCH   1  15
ATOM     15  S   UNL     1     -57.203 -41.838 -61.025  0.00  0.00    +0.000 S 
ATOM     16  O   UNL     1     -56.573 -42.849 -60.107  0.00  0.00    +0.000 OA
BRANCH  15  17
ATOM     17  C   UNL     1     -58.788 -42.527 -61.587  0.00  0.00    +0.000 C 
BRANCH  17  21
ATOM     18  C   UNL     1     -62.987 -39.626 -61.994  0.00  0.00    +0.000 C 
ATOM     19  C   UNL     1     -61.718 -40.374 -62.062  0.00  0.00    +0.000 A 
ATOM     20  C   UNL     1     -61.057 -41.236 -61.219  0.00  0.00    +0.000 A 
ATOM     21  C   UNL     1     -59.931 -41.661 -61.957  0.00  0.00    +0.000 A 
ATOM     22  N   UNL     1     -59.882 -41.035 -63.146  0.00  0.00    +0.000 NA
ATOM     23  O   UNL     1     -61.002 -40.233 -63.206  0.00  0.00    +0.000 OA
ENDBRANCH  17  21
ENDBRANCH  15  17
ENDBRANCH   1  15
BRANCH  13  24
ATOM     24  C   UNL     1     -56.073 -39.166 -62.769  0.00  0.00    +0.000 C 
ATOM     25  O   UNL     1     -57.209 -38.759 -62.937  0.00  0.00    +0.000 OA
BRANCH  24  26
ATOM     26  C   UNL     1     -55.028 -38.275 -62.230  0.00  0.00    +0.000 C 
ATOM     27  C   UNL     1     -55.290 -36.794 -62.144  0.00  0.00    +0.000 C 
ATOM     28  C   UNL     1     -54.283 -37.313 -63.124  0.00  0.00    +0.000 C 
ENDBRANCH  24  26
ENDBRANCH  13  24
TORSDOF 5
