REMARK VINA RESULT:    -6.072      3.359      5.772
REMARK INTER + INTRA:          -8.748
REMARK INTER:                  -7.838
REMARK INTRA:                  -0.910
REMARK UNBOUND:                -0.901
REMARK  Name = 
REMARK  6 active torsions:
REMARK  status: ('A' for Active; 'I' for Inactive)
REMARK    1  A    between atoms: C_1  and  C_2
REMARK    2  A    between atoms: C_4  and  C_5
REMARK    3  A    between atoms: C_5  and  S_6
REMARK    4  A    between atoms: S_6  and  C_8
REMARK    5  A    between atoms: C_20  and  C_21
REMARK    6  A    between atoms: C_21  and  C_23
REMARK                            x       y       z     vdW  Elec       q    Type
REMARK                         _______ _______ _______ _____ _____    ______ ____
ROOT
ATOM      1  C   UNL     1     -57.638 -40.802 -62.930  0.00  0.00    +0.000 A 
ATOM      2  N   UNL     1     -57.137 -39.537 -62.567  0.00  0.00    +0.000 N 
ATOM      3  C   UNL     1     -56.023 -38.976 -63.250  0.00  0.00    +0.000 A 
ATOM      4  C   UNL     1     -55.717 -37.603 -63.223  0.00  0.00    +0.000 A 
ATOM      5 BR   UNL     1     -56.889 -36.355 -62.406  0.00  0.00    +0.000 Br
ATOM      6  C   UNL     1     -54.548 -37.108 -63.818  0.00  0.00    +0.000 A 
ATOM      7  C   UNL     1     -53.681 -37.988 -64.476  0.00  0.00    +0.000 A 
ATOM      8  C   UNL     1     -53.964 -39.353 -64.518  0.00  0.00    +0.000 A 
ATOM      9 CL   UNL     1     -52.870 -40.342 -65.416  0.00  0.00    +0.000 Cl
ATOM     10  C   UNL     1     -55.119 -39.840 -63.888  0.00  0.00    +0.000 A 
ATOM     11  C   UNL     1     -55.456 -41.275 -63.806  0.00  0.00    +0.000 A 
ATOM     12  O   UNL     1     -54.590 -42.140 -63.773  0.00  0.00    +0.000 OA
ATOM     13  C   UNL     1     -56.903 -41.651 -63.682  0.00  0.00    +0.000 A 
ATOM     14  H   UNL     1     -57.889 -38.861 -62.377  0.00  0.00    +0.000 HD
ENDROOT
BRANCH   1  15
ATOM     15  S   UNL     1     -59.427 -40.941 -62.680  0.00  0.00    +0.000 S 
ATOM     16  O   UNL     1     -59.771 -39.764 -61.808  0.00  0.00    +0.000 OA
BRANCH  15  17
ATOM     17  C   UNL     1     -59.792 -42.446 -61.730  0.00  0.00    +0.000 C 
BRANCH  17  21
ATOM     18  C   UNL     1     -59.384 -43.307 -56.699  0.00  0.00    +0.000 C 
ATOM     19  C   UNL     1     -59.292 -43.019 -58.142  0.00  0.00    +0.000 A 
ATOM     20  C   UNL     1     -60.169 -43.086 -59.199  0.00  0.00    +0.000 A 
ATOM     21  C   UNL     1     -59.443 -42.571 -60.296  0.00  0.00    +0.000 A 
ATOM     22  N   UNL     1     -58.182 -42.279 -59.932  0.00  0.00    +0.000 NA
ATOM     23  O   UNL     1     -58.094 -42.560 -58.584  0.00  0.00    +0.000 OA
ENDBRANCH  17  21
ENDBRANCH  15  17
ENDBRANCH   1  15
BRANCH  13  24
ATOM     24  C   UNL     1     -57.301 -42.794 -64.552  0.00  0.00    +0.000 C 
ATOM     25  O   UNL     1     -57.332 -43.929 -64.108  0.00  0.00    +0.000 OA
BRANCH  24  26
ATOM     26  C   UNL     1     -57.704 -42.522 -65.945  0.00  0.00    +0.000 C 
ATOM     27  C   UNL     1     -57.794 -43.662 -66.927  0.00  0.00    +0.000 C 
ATOM     28  C   UNL     1     -56.716 -42.633 -67.081  0.00  0.00    +0.000 C 
ENDBRANCH  24  26
ENDBRANCH  13  24
TORSDOF 5
