REMARK VINA RESULT:    -4.836      5.087      6.333
REMARK INTER + INTRA:          -6.932
REMARK INTER:                  -6.307
REMARK INTRA:                  -0.625
REMARK UNBOUND:                -0.965
REMARK  Name = 
REMARK  6 active torsions:
REMARK  status: ('A' for Active; 'I' for Inactive)
REMARK    1  A    between atoms: C_1  and  C_2
REMARK    2  A    between atoms: C_2  and  C_4
REMARK    3  A    between atoms: C_5  and  S_6
REMARK    4  A    between atoms: S_6  and  C_8
REMARK    5  A    between atoms: C_8  and  C_9
REMARK    6  A    between atoms: C_11  and  C_12
REMARK                            x       y       z     vdW  Elec       q    Type
REMARK                         _______ _______ _______ _____ _____    ______ ____
ROOT
ATOM      1  C   UNL     1     -58.196 -39.664 -62.482  0.00  0.00    +0.000 A 
ATOM      2  C   UNL     1     -58.510 -38.424 -62.040  0.00  0.00    +0.000 A 
ATOM      3  N   UNL     1     -57.728 -37.313 -62.277  0.00  0.00    +0.000 N 
ATOM      4  C   UNL     1     -56.464 -37.387 -62.886  0.00  0.00    +0.000 A 
ATOM      5  C   UNL     1     -55.700 -36.222 -63.099  0.00  0.00    +0.000 A 
ATOM      6 BR   UNL     1     -56.322 -34.524 -62.514  0.00  0.00    +0.000 Br
ATOM      7  C   UNL     1     -54.468 -36.280 -63.749  0.00  0.00    +0.000 A 
ATOM      8  C   UNL     1     -53.986 -37.505 -64.196  0.00  0.00    +0.000 A 
ATOM      9  C   UNL     1     -54.736 -38.673 -64.017  0.00  0.00    +0.000 A 
ATOM     10 CL   UNL     1     -53.997 -40.117 -64.616  0.00  0.00    +0.000 Cl
ATOM     11  C   UNL     1     -55.993 -38.615 -63.380  0.00  0.00    +0.000 A 
ATOM     12  C   UNL     1     -56.865 -39.803 -63.177  0.00  0.00    +0.000 A 
ATOM     13  O   UNL     1     -56.481 -40.909 -63.540  0.00  0.00    +0.000 OA
ATOM     14  H   UNL     1     -57.861 -36.532 -61.633  0.00  0.00    +0.000 HD
ENDROOT
BRANCH   1  16
ATOM     15  C   UNL     1     -58.801 -41.783 -61.099  0.00  0.00    +0.000 C 
ATOM     16  C   UNL     1     -59.053 -40.887 -62.292  0.00  0.00    +0.000 C 
ATOM     17  O   UNL     1     -59.934 -41.192 -63.091  0.00  0.00    +0.000 OA
ENDBRANCH   1  16
BRANCH   2  18
ATOM     18  S   UNL     1     -59.942 -38.144 -60.936  0.00  0.00    +0.000 S 
ATOM     19  O   UNL     1     -59.384 -37.247 -59.864  0.00  0.00    +0.000 OA
BRANCH  18  20
ATOM     20  C   UNL     1     -60.947 -37.068 -62.021  0.00  0.00    +0.000 C 
BRANCH  20  21
ATOM     21  C   UNL     1     -61.998 -36.327 -61.263  0.00  0.00    +0.000 A 
ATOM     22  C   UNL     1     -62.291 -34.938 -61.253  0.00  0.00    +0.000 A 
ATOM     23  C   UNL     1     -63.402 -34.823 -60.454  0.00  0.00    +0.000 A 
ATOM     24  C   UNL     1     -64.246 -33.696 -60.010  0.00  0.00    +0.000 C 
ATOM     25  O   UNL     1     -63.761 -36.057 -60.012  0.00  0.00    +0.000 OA
ATOM     26  N   UNL     1     -62.889 -37.004 -60.521  0.00  0.00    +0.000 NA
ENDBRANCH  20  21
ENDBRANCH  18  20
ENDBRANCH   2  18
TORSDOF 4
