REMARK VINA RESULT:    -3.577     21.915     23.539
REMARK INTER + INTRA:          -5.384
REMARK INTER:                  -4.349
REMARK INTRA:                  -1.034
REMARK UNBOUND:                -0.971
REMARK  Name = 
REMARK  6 active torsions:
REMARK  status: ('A' for Active; 'I' for Inactive)
REMARK    1  A    between atoms: C_1  and  C_2
REMARK    2  A    between atoms: C_2  and  C_4
REMARK    3  A    between atoms: C_5  and  S_6
REMARK    4  A    between atoms: S_6  and  C_8
REMARK    5  A    between atoms: C_8  and  C_9
REMARK    6  A    between atoms: C_11  and  C_12
REMARK                            x       y       z     vdW  Elec       q    Type
REMARK                         _______ _______ _______ _____ _____    ______ ____
ROOT
ATOM      1  C   UNL     1     -49.758 -25.199 -62.041  0.00  0.00    +0.000 A 
ATOM      2  C   UNL     1     -48.580 -25.660 -62.523  0.00  0.00    +0.000 A 
ATOM      3  N   UNL     1     -47.961 -25.137 -63.645  0.00  0.00    +0.000 N 
ATOM      4  C   UNL     1     -48.600 -24.224 -64.504  0.00  0.00    +0.000 A 
ATOM      5  C   UNL     1     -47.982 -23.795 -65.693  0.00  0.00    +0.000 A 
ATOM      6 BR   UNL     1     -46.292 -24.484 -66.219  0.00  0.00    +0.000 Br
ATOM      7  C   UNL     1     -48.594 -22.859 -66.525  0.00  0.00    +0.000 A 
ATOM      8  C   UNL     1     -49.833 -22.334 -66.175  0.00  0.00    +0.000 A 
ATOM      9  C   UNL     1     -50.457 -22.724 -64.983  0.00  0.00    +0.000 A 
ATOM     10 CL   UNL     1     -52.006 -22.009 -64.700  0.00  0.00    +0.000 Cl
ATOM     11  C   UNL     1     -49.829 -23.653 -64.130  0.00  0.00    +0.000 A 
ATOM     12  C   UNL     1     -50.407 -24.090 -62.829  0.00  0.00    +0.000 A 
ATOM     13  O   UNL     1     -51.428 -23.557 -62.415  0.00  0.00    +0.000 OA
ATOM     14  H   UNL     1     -47.307 -25.772 -64.109  0.00  0.00    +0.000 HD
ENDROOT
BRANCH   1  16
ATOM     15  C   UNL     1     -51.433 -26.880 -60.953  0.00  0.00    +0.000 C 
ATOM     16  C   UNL     1     -50.449 -25.738 -60.813  0.00  0.00    +0.000 C 
ATOM     17  O   UNL     1     -50.238 -25.268 -59.693  0.00  0.00    +0.000 OA
ENDBRANCH   1  16
BRANCH   2  18
ATOM     18  S   UNL     1     -47.772 -27.152 -61.830  0.00  0.00    +0.000 S 
ATOM     19  O   UNL     1     -47.293 -27.882 -63.056  0.00  0.00    +0.000 OA
BRANCH  18  20
ATOM     20  C   UNL     1     -46.290 -26.373 -61.097  0.00  0.00    +0.000 C 
BRANCH  20  21
ATOM     21  C   UNL     1     -46.634 -25.328 -60.081  0.00  0.00    +0.000 A 
ATOM     22  C   UNL     1     -46.692 -23.917 -60.219  0.00  0.00    +0.000 A 
ATOM     23  C   UNL     1     -47.180 -23.466 -59.016  0.00  0.00    +0.000 A 
ATOM     24  C   UNL     1     -47.526 -22.143 -58.461  0.00  0.00    +0.000 C 
ATOM     25  O   UNL     1     -47.388 -24.537 -58.199  0.00  0.00    +0.000 OA
ATOM     26  N   UNL     1     -47.055 -25.703 -58.865  0.00  0.00    +0.000 NA
ENDBRANCH  20  21
ENDBRANCH  18  20
ENDBRANCH   2  18
TORSDOF 4
