REMARK VINA RESULT:    -6.847      0.000      0.000
REMARK INTER + INTRA:          -9.722
REMARK INTER:                  -8.848
REMARK INTRA:                  -0.873
REMARK UNBOUND:                -0.873
REMARK  Name = 
REMARK  6 active torsions:
REMARK  status: ('A' for Active; 'I' for Inactive)
REMARK    1  A    between atoms: C_1  and  C_2
REMARK    2  A    between atoms: C_4  and  C_5
REMARK    3  A    between atoms: C_5  and  S_6
REMARK    4  A    between atoms: S_6  and  C_8
REMARK    5  A    between atoms: C_20  and  C_21
REMARK    6  A    between atoms: C_21  and  C_23
REMARK                            x       y       z     vdW  Elec       q    Type
REMARK                         _______ _______ _______ _____ _____    ______ ____
ROOT
ATOM      1  C   UNL     1     -55.692 -42.230 -76.907  0.00  0.00    +0.000 A 
ATOM      2  N   UNL     1     -54.928 -41.050 -76.991  0.00  0.00    +0.000 N 
ATOM      3  C   UNL     1     -53.532 -41.071 -76.717  0.00  0.00    +0.000 A 
ATOM      4  C   UNL     1     -52.651 -40.061 -77.145  0.00  0.00    +0.000 A 
ATOM      5 BR   UNL     1     -53.240 -38.668 -78.290  0.00  0.00    +0.000 Br
ATOM      6  C   UNL     1     -51.303 -40.063 -76.759  0.00  0.00    +0.000 A 
ATOM      7  C   UNL     1     -50.814 -41.100 -75.957  0.00  0.00    +0.000 A 
ATOM      8  C   UNL     1     -51.669 -42.113 -75.521  0.00  0.00    +0.000 A 
ATOM      9 CL   UNL     1     -50.953 -43.384 -74.597  0.00  0.00    +0.000 Cl
ATOM     10  C   UNL     1     -53.023 -42.080 -75.885  0.00  0.00    +0.000 A 
ATOM     11  C   UNL     1     -54.018 -43.058 -75.403  0.00  0.00    +0.000 A 
ATOM     12  O   UNL     1     -53.913 -43.600 -74.310  0.00  0.00    +0.000 OA
ATOM     13  C   UNL     1     -55.220 -43.320 -76.261  0.00  0.00    +0.000 A 
ATOM     14  H   UNL     1     -55.181 -40.480 -77.809  0.00  0.00    +0.000 HD
ENDROOT
BRANCH   1  15
ATOM     15  S   UNL     1     -57.067 -42.254 -78.086  0.00  0.00    +0.000 S 
ATOM     16  O   UNL     1     -56.789 -41.094 -79.003  0.00  0.00    +0.000 OA
BRANCH  15  17
ATOM     17  C   UNL     1     -58.620 -41.897 -77.214  0.00  0.00    +0.000 C 
BRANCH  17  21
ATOM     18  C   UNL     1     -59.080 -41.533 -72.127  0.00  0.00    +0.000 C 
ATOM     19  C   UNL     1     -58.815 -41.472 -73.576  0.00  0.00    +0.000 A 
ATOM     20  C   UNL     1     -59.169 -42.244 -74.658  0.00  0.00    +0.000 A 
ATOM     21  C   UNL     1     -58.648 -41.553 -75.774  0.00  0.00    +0.000 A 
ATOM     22  N   UNL     1     -57.959 -40.468 -75.377  0.00  0.00    +0.000 NA
ATOM     23  O   UNL     1     -58.069 -40.422 -74.003  0.00  0.00    +0.000 OA
ENDBRANCH  17  21
ENDBRANCH  15  17
ENDBRANCH   1  15
BRANCH  13  24
ATOM     24  C   UNL     1     -55.570 -44.764 -76.379  0.00  0.00    +0.000 C 
ATOM     25  O   UNL     1     -56.723 -45.135 -76.249  0.00  0.00    +0.000 OA
BRANCH  24  26
ATOM     26  C   UNL     1     -54.503 -45.730 -76.704  0.00  0.00    +0.000 C 
ATOM     27  C   UNL     1     -54.845 -47.190 -76.854  0.00  0.00    +0.000 C 
ATOM     28  C   UNL     1     -54.022 -46.737 -75.687  0.00  0.00    +0.000 C 
ENDBRANCH  24  26
ENDBRANCH  13  24
TORSDOF 5
