REMARK VINA RESULT:    -6.579      3.973      7.433
REMARK INTER + INTRA:          -9.413
REMARK INTER:                  -8.741
REMARK INTRA:                  -0.672
REMARK UNBOUND:                -0.911
REMARK  Name = 
REMARK  6 active torsions:
REMARK  status: ('A' for Active; 'I' for Inactive)
REMARK    1  A    between atoms: C_1  and  C_2
REMARK    2  A    between atoms: C_4  and  C_5
REMARK    3  A    between atoms: C_5  and  S_6
REMARK    4  A    between atoms: S_6  and  C_8
REMARK    5  A    between atoms: C_20  and  C_21
REMARK    6  A    between atoms: C_21  and  C_23
REMARK                            x       y       z     vdW  Elec       q    Type
REMARK                         _______ _______ _______ _____ _____    ______ ____
ROOT
ATOM      1  C   UNL     1     -55.417 -42.404 -77.767  0.00  0.00    +0.000 A 
ATOM      2  N   UNL     1     -56.730 -42.854 -77.530  0.00  0.00    +0.000 N 
ATOM      3  C   UNL     1     -57.369 -42.599 -76.286  0.00  0.00    +0.000 A 
ATOM      4  C   UNL     1     -58.764 -42.661 -76.112  0.00  0.00    +0.000 A 
ATOM      5 BR   UNL     1     -59.924 -42.919 -77.591  0.00  0.00    +0.000 Br
ATOM      6  C   UNL     1     -59.345 -42.511 -74.845  0.00  0.00    +0.000 A 
ATOM      7  C   UNL     1     -58.529 -42.268 -73.734  0.00  0.00    +0.000 A 
ATOM      8  C   UNL     1     -57.144 -42.201 -73.882  0.00  0.00    +0.000 A 
ATOM      9 CL   UNL     1     -56.233 -41.825 -72.464  0.00  0.00    +0.000 Cl
ATOM     10  C   UNL     1     -56.573 -42.388 -75.150  0.00  0.00    +0.000 A 
ATOM     11  C   UNL     1     -55.117 -42.419 -75.388  0.00  0.00    +0.000 A 
ATOM     12  O   UNL     1     -54.332 -42.816 -74.536  0.00  0.00    +0.000 OA
ATOM     13  C   UNL     1     -54.618 -42.022 -76.746  0.00  0.00    +0.000 A 
ATOM     14  H   UNL     1     -57.342 -42.717 -78.346  0.00  0.00    +0.000 HD
ENDROOT
BRANCH   1  15
ATOM     15  S   UNL     1     -55.127 -41.985 -79.506  0.00  0.00    +0.000 S 
ATOM     16  O   UNL     1     -56.305 -42.579 -80.230  0.00  0.00    +0.000 OA
BRANCH  15  17
ATOM     17  C   UNL     1     -53.637 -42.841 -80.096  0.00  0.00    +0.000 C 
BRANCH  17  21
ATOM     18  C   UNL     1     -50.338 -41.765 -83.862  0.00  0.00    +0.000 C 
ATOM     19  C   UNL     1     -51.432 -41.969 -82.893  0.00  0.00    +0.000 A 
ATOM     20  C   UNL     1     -51.567 -42.675 -81.722  0.00  0.00    +0.000 A 
ATOM     21  C   UNL     1     -52.862 -42.351 -81.259  0.00  0.00    +0.000 A 
ATOM     22  N   UNL     1     -53.491 -41.553 -82.139  0.00  0.00    +0.000 NA
ATOM     23  O   UNL     1     -52.592 -41.316 -83.158  0.00  0.00    +0.000 OA
ENDBRANCH  17  21
ENDBRANCH  15  17
ENDBRANCH   1  15
BRANCH  13  24
ATOM     24  C   UNL     1     -53.423 -41.132 -76.709  0.00  0.00    +0.000 C 
ATOM     25  O   UNL     1     -53.553 -39.920 -76.706  0.00  0.00    +0.000 OA
BRANCH  24  26
ATOM     26  C   UNL     1     -52.083 -41.743 -76.628  0.00  0.00    +0.000 C 
ATOM     27  C   UNL     1     -50.888 -40.873 -76.334  0.00  0.00    +0.000 C 
ATOM     28  C   UNL     1     -51.041 -41.489 -77.691  0.00  0.00    +0.000 C 
ENDBRANCH  24  26
ENDBRANCH  13  24
TORSDOF 5
