REMARK VINA RESULT:    -6.698      0.000      0.000
REMARK INTER + INTRA:          -9.811
REMARK INTER:                  -8.656
REMARK INTRA:                  -1.155
REMARK UNBOUND:                -1.155
REMARK  Name = 
REMARK  6 active torsions:
REMARK  status: ('A' for Active; 'I' for Inactive)
REMARK    1  A    between atoms: C_1  and  C_2
REMARK    2  A    between atoms: C_4  and  C_5
REMARK    3  A    between atoms: C_5  and  S_6
REMARK    4  A    between atoms: S_6  and  C_8
REMARK    5  A    between atoms: C_20  and  C_21
REMARK    6  A    between atoms: C_21  and  C_23
REMARK                            x       y       z     vdW  Elec       q    Type
REMARK                         _______ _______ _______ _____ _____    ______ ____
ROOT
ATOM      1  C   UNL     1     -56.064 -42.364 -62.664  0.00  0.00    +0.000 A 
ATOM      2  N   UNL     1     -55.135 -43.408 -62.839  0.00  0.00    +0.000 N 
ATOM      3  C   UNL     1     -53.805 -43.129 -63.260  0.00  0.00    +0.000 A 
ATOM      4  C   UNL     1     -52.739 -44.031 -63.085  0.00  0.00    +0.000 A 
ATOM      5 BR   UNL     1     -52.967 -45.635 -62.098  0.00  0.00    +0.000 Br
ATOM      6  C   UNL     1     -51.469 -43.764 -63.613  0.00  0.00    +0.000 A 
ATOM      7  C   UNL     1     -51.244 -42.568 -64.304  0.00  0.00    +0.000 A 
ATOM      8  C   UNL     1     -52.284 -41.657 -64.489  0.00  0.00    +0.000 A 
ATOM      9 CL   UNL     1     -51.887 -40.180 -65.290  0.00  0.00    +0.000 Cl
ATOM     10  C   UNL     1     -53.561 -41.953 -63.986  0.00  0.00    +0.000 A 
ATOM     11  C   UNL     1     -54.740 -41.093 -64.206  0.00  0.00    +0.000 A 
ATOM     12  O   UNL     1     -54.858 -40.407 -65.213  0.00  0.00    +0.000 OA
ATOM     13  C   UNL     1     -55.843 -41.140 -63.191  0.00  0.00    +0.000 A 
ATOM     14  H   UNL     1     -55.193 -44.112 -62.090  0.00  0.00    +0.000 HD
ENDROOT
BRANCH   1  15
ATOM     15  S   UNL     1     -57.262 -42.712 -61.348  0.00  0.00    +0.000 S 
ATOM     16  O   UNL     1     -58.533 -42.066 -61.826  0.00  0.00    +0.000 OA
BRANCH  15  17
ATOM     17  C   UNL     1     -56.756 -41.859 -59.826  0.00  0.00    +0.000 C 
BRANCH  17  21
ATOM     18  C   UNL     1     -53.327 -43.100 -56.232  0.00  0.00    +0.000 C 
ATOM     19  C   UNL     1     -54.238 -42.909 -57.375  0.00  0.00    +0.000 A 
ATOM     20  C   UNL     1     -55.289 -42.064 -57.644  0.00  0.00    +0.000 A 
ATOM     21  C   UNL     1     -55.652 -42.362 -58.976  0.00  0.00    +0.000 A 
ATOM     22  N   UNL     1     -54.909 -43.377 -59.452  0.00  0.00    +0.000 NA
ATOM     23  O   UNL     1     -54.026 -43.713 -58.448  0.00  0.00    +0.000 OA
ENDBRANCH  17  21
ENDBRANCH  15  17
ENDBRANCH   1  15
BRANCH  13  24
ATOM     24  C   UNL     1     -56.377 -39.798 -62.824  0.00  0.00    +0.000 C 
ATOM     25  O   UNL     1     -57.503 -39.467 -63.156  0.00  0.00    +0.000 OA
BRANCH  24  26
ATOM     26  C   UNL     1     -55.539 -38.896 -62.012  0.00  0.00    +0.000 C 
ATOM     27  C   UNL     1     -55.936 -37.450 -61.861  0.00  0.00    +0.000 C 
ATOM     28  C   UNL     1     -54.715 -37.804 -62.653  0.00  0.00    +0.000 C 
ENDBRANCH  24  26
ENDBRANCH  13  24
TORSDOF 5
