REMARK VINA RESULT:    -6.040     13.550     16.674
REMARK INTER + INTRA:          -8.565
REMARK INTER:                  -7.641
REMARK INTRA:                  -0.924
REMARK UNBOUND:                -0.760
REMARK  Name = 
REMARK  8 active torsions:
REMARK  status: ('A' for Active; 'I' for Inactive)
REMARK    1  A    between atoms: C_1  and  C_2
REMARK    2  A    between atoms: C_4  and  C_5
REMARK    3  A    between atoms: C_5  and  S_6
REMARK    4  A    between atoms: S_6  and  C_8
REMARK    5  A    between atoms: C_20  and  C_21
REMARK    6  A    between atoms: C_21  and  C_23
REMARK    7  A    between atoms: C_23  and  C_24
REMARK    8  A    between atoms: C_23  and  C_25
REMARK                            x       y       z     vdW  Elec       q    Type
REMARK                         _______ _______ _______ _____ _____    ______ ____
ROOT
ATOM      1  C   UNL     1     -66.937 -49.246 -54.481  0.00  0.00    +0.000 A 
ATOM      2  N   UNL     1     -67.514 -50.277 -55.216  0.00  0.00    +0.000 N 
ATOM      3  C   UNL     1     -67.588 -51.590 -54.713  0.00  0.00    +0.000 A 
ATOM      4  C   UNL     1     -68.503 -52.534 -55.216  0.00  0.00    +0.000 A 
ATOM      5 BR   UNL     1     -69.810 -52.039 -56.499  0.00  0.00    +0.000 Br
ATOM      6  C   UNL     1     -68.503 -53.853 -54.754  0.00  0.00    +0.000 A 
ATOM      7  C   UNL     1     -67.591 -54.247 -53.779  0.00  0.00    +0.000 A 
ATOM      8  C   UNL     1     -66.673 -53.317 -53.257  0.00  0.00    +0.000 A 
ATOM      9 CL   UNL     1     -65.641 -53.903 -52.003  0.00  0.00    +0.000 Cl
ATOM     10  C   UNL     1     -66.669 -51.988 -53.729  0.00  0.00    +0.000 A 
ATOM     11  C   UNL     1     -65.721 -50.942 -53.267  0.00  0.00    +0.000 A 
ATOM     12  O   UNL     1     -64.638 -51.262 -52.786  0.00  0.00    +0.000 OA
ATOM     13  C   UNL     1     -66.117 -49.477 -53.427  0.00  0.00    +0.000 A 
ATOM     14  H   UNL     1     -68.297 -49.976 -55.812  0.00  0.00    +0.000 HD
ENDROOT
BRANCH   1  15
ATOM     15  S   UNL     1     -67.597 -47.611 -54.982  0.00  0.00    +0.000 S 
ATOM     16  O   UNL     1     -68.900 -47.507 -54.238  0.00  0.00    +0.000 OA
BRANCH  15  17
ATOM     17  C   UNL     1     -67.960 -47.833 -56.757  0.00  0.00    +0.000 C 
BRANCH  17  21
ATOM     18  C   UNL     1     -64.408 -47.410 -60.499  0.00  0.00    +0.000 C 
ATOM     19  C   UNL     1     -65.292 -47.422 -59.312  0.00  0.00    +0.000 A 
ATOM     20  C   UNL     1     -66.578 -47.840 -59.060  0.00  0.00    +0.000 A 
ATOM     21  C   UNL     1     -66.788 -47.579 -57.675  0.00  0.00    +0.000 A 
ATOM     22  N   UNL     1     -65.687 -47.016 -57.146  0.00  0.00    +0.000 NA
ATOM     23  O   UNL     1     -64.760 -46.925 -58.166  0.00  0.00    +0.000 OA
ENDBRANCH  17  21
ENDBRANCH  15  17
ENDBRANCH   1  15
BRANCH  13  24
ATOM     24  C   UNL     1     -65.586 -48.512 -52.391  0.00  0.00    +0.000 C 
ATOM     25  O   UNL     1     -66.274 -48.212 -51.415  0.00  0.00    +0.000 OA
BRANCH  24  26
ATOM     26  C   UNL     1     -64.220 -47.851 -52.578  0.00  0.00    +0.000 C 
ATOM     27  C   UNL     1     -64.284 -46.691 -53.568  0.00  0.00    +0.000 C 
ATOM     28  C   UNL     1     -63.624 -47.382 -51.248  0.00  0.00    +0.000 C 
ENDBRANCH  24  26
ENDBRANCH  13  24
TORSDOF 5
