REMARK VINA RESULT:    -7.654      0.000      0.000
REMARK INTER + INTRA:         -10.527
REMARK INTER:                  -9.891
REMARK INTRA:                  -0.635
REMARK UNBOUND:                -0.635
REMARK  Name = 
REMARK  6 active torsions:
REMARK  status: ('A' for Active; 'I' for Inactive)
REMARK    1  A    between atoms: C_1  and  C_2
REMARK    2  A    between atoms: C_4  and  C_5
REMARK    3  A    between atoms: C_5  and  S_6
REMARK    4  A    between atoms: S_6  and  C_8
REMARK    5  A    between atoms: C_20  and  C_21
REMARK    6  A    between atoms: C_21  and  C_23
REMARK                            x       y       z     vdW  Elec       q    Type
REMARK                         _______ _______ _______ _____ _____    ______ ____
ROOT
ATOM      1  C   UNL     1     -55.575 -41.331 -63.539  0.00  0.00    +0.000 A 
ATOM      2  N   UNL     1     -54.213 -41.075 -63.787  0.00  0.00    +0.000 N 
ATOM      3  C   UNL     1     -53.268 -42.137 -63.799  0.00  0.00    +0.000 A 
ATOM      4  C   UNL     1     -52.003 -42.032 -64.407  0.00  0.00    +0.000 A 
ATOM      5 BR   UNL     1     -51.529 -40.503 -65.425  0.00  0.00    +0.000 Br
ATOM      6  C   UNL     1     -51.059 -43.064 -64.301  0.00  0.00    +0.000 A 
ATOM      7  C   UNL     1     -51.386 -44.232 -63.603  0.00  0.00    +0.000 A 
ATOM      8  C   UNL     1     -52.635 -44.360 -62.994  0.00  0.00    +0.000 A 
ATOM      9 CL   UNL     1     -52.966 -45.867 -62.219  0.00  0.00    +0.000 Cl
ATOM     10  C   UNL     1     -53.557 -43.305 -63.077  0.00  0.00    +0.000 A 
ATOM     11  C   UNL     1     -54.865 -43.315 -62.394  0.00  0.00    +0.000 A 
ATOM     12  O   UNL     1     -55.038 -43.912 -61.339  0.00  0.00    +0.000 OA
ATOM     13  C   UNL     1     -55.975 -42.499 -62.990  0.00  0.00    +0.000 A 
ATOM     14  H   UNL     1     -54.077 -40.390 -64.543  0.00  0.00    +0.000 HD
ENDROOT
BRANCH   1  15
ATOM     15  S   UNL     1     -56.670 -40.184 -64.416  0.00  0.00    +0.000 S 
ATOM     16  O   UNL     1     -57.472 -39.530 -63.324  0.00  0.00    +0.000 OA
BRANCH  15  17
ATOM     17  C   UNL     1     -57.829 -41.125 -65.452  0.00  0.00    +0.000 C 
BRANCH  17  21
ATOM     18  C   UNL     1     -55.654 -43.230 -69.582  0.00  0.00    +0.000 C 
ATOM     19  C   UNL     1     -56.359 -42.818 -68.354  0.00  0.00    +0.000 A 
ATOM     20  C   UNL     1     -56.423 -41.658 -67.619  0.00  0.00    +0.000 A 
ATOM     21  C   UNL     1     -57.370 -41.931 -66.606  0.00  0.00    +0.000 A 
ATOM     22  N   UNL     1     -57.793 -43.205 -66.688  0.00  0.00    +0.000 NA
ATOM     23  O   UNL     1     -57.159 -43.754 -67.783  0.00  0.00    +0.000 OA
ENDBRANCH  17  21
ENDBRANCH  15  17
ENDBRANCH   1  15
BRANCH  13  24
ATOM     24  C   UNL     1     -57.287 -43.205 -63.020  0.00  0.00    +0.000 C 
ATOM     25  O   UNL     1     -57.406 -44.267 -63.606  0.00  0.00    +0.000 OA
BRANCH  24  26
ATOM     26  C   UNL     1     -58.427 -42.620 -62.288  0.00  0.00    +0.000 C 
ATOM     27  C   UNL     1     -58.397 -42.576 -60.782  0.00  0.00    +0.000 C 
ATOM     28  C   UNL     1     -59.364 -43.484 -61.479  0.00  0.00    +0.000 C 
ENDBRANCH  24  26
ENDBRANCH  13  24
TORSDOF 5
