=
 OpenBabel09172513023D

 26 28  0  0  0  0  0  0  0  0999 V2000
  -56.2680  -41.9970  -62.6240 C   0  0  0  0  0  0  0  0  0  0  0  0
  -55.9540  -40.8820  -63.3230 C   0  0  0  0  0  0  0  0  0  0  0  0
  -54.8050  -40.7570  -64.0860 N   0  0  0  0  0  0  0  0  0  0  0  0
  -53.7330  -41.6590  -63.9430 C   0  0  0  0  0  0  0  0  0  0  0  0
  -52.4770  -41.3890  -64.5110 C   0  0  0  0  0  0  0  0  0  0  0  0
  -52.1580  -39.7710  -65.4510 Br  0  0  0  0  0  0  0  0  0  0  0  0
  -51.4280  -42.2970  -64.3830 C   0  0  0  0  0  3  0  0  0  0  0  0
  -51.6290  -43.4900  -63.6870 C   0  0  0  0  0  3  0  0  0  0  0  0
  -52.8860  -43.7950  -63.1420 C   0  0  0  0  0  0  0  0  0  0  0  0
  -52.9930  -45.2640  -62.2470 Cl  0  0  0  0  0  0  0  0  0  0  0  0
  -53.9460  -42.8890  -63.2990 C   0  0  0  0  0  0  0  0  0  0  0  0
  -55.3340  -43.1540  -62.8290 C   0  0  0  0  0  0  0  0  0  0  0  0
  -55.7300  -44.3010  -62.6490 O   0  0  0  0  0  0  0  0  0  0  0  0
  -54.5110  -39.7880  -64.2360 H   0  0  0  0  0  0  0  0  0  0  0  0
  -58.7960  -42.5220  -62.2910 C   0  0  0  0  0  1  0  0  0  0  0  0
  -57.4450  -42.1490  -61.7110 C   0  0  0  0  0  0  0  0  0  0  0  0
  -57.3300  -41.9850  -60.4960 O   0  0  0  0  0  0  0  0  0  0  0  0
  -56.9500  -39.3590  -63.2000 S   0  0  1  0  0  0  0  0  0  0  0  0
  -56.6520  -38.8640  -61.8100 O   0  0  0  0  0  0  0  0  0  0  0  0
  -55.9510  -38.3250  -64.3370 C   0  0  0  0  0  2  0  0  0  0  0  0
  -55.2040  -37.2170  -63.6700 C   0  0  0  0  0  0  0  0  0  0  0  0
  -55.5860  -35.8830  -63.3760 C   0  0  0  0  0  3  0  0  0  0  0  0
  -54.5280  -35.3610  -62.6720 C   0  0  0  0  0  0  0  0  0  0  0  0
  -54.2270  -34.0570  -62.0530 C   0  0  0  0  0  1  0  0  0  0  0  0
  -53.5740  -36.3200  -62.5370 O   0  0  0  0  0  0  0  0  0  0  0  0
  -53.9930  -37.4810  -63.1510 N   0  0  0  0  0  0  0  0  0  0  0  0
  1 16  1  0  0  0  0
  2 18  1  0  0  0  0
  2  1  2  0  0  0  0
  3  4  1  0  0  0  0
  3  2  1  0  0  0  0
  4 11  1  0  0  0  0
  5  7  1  0  0  0  0
  5  4  2  0  0  0  0
  6  5  1  0  0  0  0
  7  8  2  0  0  0  0
  8  9  1  0  0  0  0
  9 10  1  0  0  0  0
 11  9  2  0  0  0  0
 11 12  1  0  0  0  0
 12 13  2  0  0  0  0
 12  1  1  0  0  0  0
 14  3  1  0  0  0  0
 15 16  1  0  0  0  0
 16 17  2  0  0  0  0
 18 19  2  1  0  0  0
 20 21  1  0  0  0  0
 20 18  1  0  0  0  0
 21 22  1  0  0  0  0
 21 26  2  0  0  0  0
 22 23  2  0  0  0  0
 23 25  1  0  0  0  0
 23 24  1  0  0  0  0
 26 25  1  0  0  0  0
M  END
>  <MODEL>
1

>  <REMARK>
 VINA RESULT:    -6.552      0.000      0.000
 INTER + INTRA:          -9.014
 INTER:                  -8.084
 INTRA:                  -0.930
 UNBOUND:                -0.930
  Name = 
  6 active torsions:
  status: ('A' for Active; 'I' for Inactive)
    1  A    between atoms: C_1  and  C_2
    2  A    between atoms: C_2  and  C_4
    3  A    between atoms: C_5  and  S_6
    4  A    between atoms: S_6  and  C_8
    5  A    between atoms: C_8  and  C_9
    6  A    between atoms: C_11  and  C_12
                            x       y       z     vdW  Elec       q    Type
                         _______ _______ _______ _____ _____    ______ ____

>  <TORSDO>
F 4

$$$$
