REMARK VINA RESULT:    -5.162      4.562      6.214
REMARK INTER + INTRA:          -7.089
REMARK INTER:                  -6.267
REMARK INTRA:                  -0.822
REMARK UNBOUND:                -0.720
REMARK  Name = 
REMARK  6 active torsions:
REMARK  status: ('A' for Active; 'I' for Inactive)
REMARK    1  A    between atoms: C_1  and  C_2
REMARK    2  A    between atoms: C_2  and  C_4
REMARK    3  A    between atoms: C_5  and  S_6
REMARK    4  A    between atoms: S_6  and  C_8
REMARK    5  A    between atoms: C_8  and  C_9
REMARK    6  A    between atoms: C_11  and  C_12
REMARK                            x       y       z     vdW  Elec       q    Type
REMARK                         _______ _______ _______ _____ _____    ______ ____
ROOT
ATOM      1  C   UNL     1     -54.028 -41.342 -77.288  0.00  0.00    +0.000 A 
ATOM      2  C   UNL     1     -54.477 -41.154 -78.553  0.00  0.00    +0.000 A 
ATOM      3  N   UNL     1     -55.808 -41.278 -78.908  0.00  0.00    +0.000 N 
ATOM      4  C   UNL     1     -56.792 -41.763 -78.026  0.00  0.00    +0.000 A 
ATOM      5  C   UNL     1     -58.120 -41.939 -78.446  0.00  0.00    +0.000 A 
ATOM      6 BR   UNL     1     -58.622 -41.632 -80.253  0.00  0.00    +0.000 Br
ATOM      7  C   UNL     1     -59.111 -42.356 -77.555  0.00  0.00    +0.000 A 
ATOM      8  C   UNL     1     -58.781 -42.594 -76.223  0.00  0.00    +0.000 A 
ATOM      9  C   UNL     1     -57.470 -42.418 -75.778  0.00  0.00    +0.000 A 
ATOM     10 CL   UNL     1     -57.217 -42.769 -74.102  0.00  0.00    +0.000 Cl
ATOM     11  C   UNL     1     -56.473 -41.988 -76.678  0.00  0.00    +0.000 A 
ATOM     12  C   UNL     1     -55.058 -41.778 -76.277  0.00  0.00    +0.000 A 
ATOM     13  O   UNL     1     -54.718 -42.002 -75.118  0.00  0.00    +0.000 OA
ATOM     14  H   UNL     1     -56.000 -41.401 -79.902  0.00  0.00    +0.000 HD
ENDROOT
BRANCH   1  16
ATOM     15  C   UNL     1     -52.059 -39.788 -76.586  0.00  0.00    +0.000 C 
ATOM     16  C   UNL     1     -52.600 -41.178 -76.839  0.00  0.00    +0.000 C 
ATOM     17  O   UNL     1     -51.851 -42.150 -76.687  0.00  0.00    +0.000 OA
ENDBRANCH   1  16
BRANCH   2  18
ATOM     18  S   UNL     1     -53.314 -40.868 -79.933  0.00  0.00    +0.000 S 
ATOM     19  O   UNL     1     -53.026 -42.252 -80.451  0.00  0.00    +0.000 OA
BRANCH  18  20
ATOM     20  C   UNL     1     -54.442 -40.101 -81.149  0.00  0.00    +0.000 C 
BRANCH  20  21
ATOM     21  C   UNL     1     -54.688 -40.969 -82.344  0.00  0.00    +0.000 A 
ATOM     22  C   UNL     1     -53.971 -41.078 -83.566  0.00  0.00    +0.000 A 
ATOM     23  C   UNL     1     -54.637 -42.041 -84.280  0.00  0.00    +0.000 A 
ATOM     24  C   UNL     1     -54.487 -42.626 -85.627  0.00  0.00    +0.000 C 
ATOM     25  O   UNL     1     -55.663 -42.519 -83.526  0.00  0.00    +0.000 OA
ATOM     26  N   UNL     1     -55.693 -41.858 -82.312  0.00  0.00    +0.000 NA
ENDBRANCH  20  21
ENDBRANCH  18  20
ENDBRANCH   2  18
TORSDOF 4
