REMARK VINA RESULT:    -6.212      3.466      5.409
REMARK INTER + INTRA:          -8.918
REMARK INTER:                  -8.012
REMARK INTRA:                  -0.906
REMARK UNBOUND:                -0.891
REMARK  Name = 
REMARK  6 active torsions:
REMARK  status: ('A' for Active; 'I' for Inactive)
REMARK    1  A    between atoms: C_1  and  C_2
REMARK    2  A    between atoms: C_4  and  C_5
REMARK    3  A    between atoms: C_5  and  S_6
REMARK    4  A    between atoms: S_6  and  C_8
REMARK    5  A    between atoms: C_20  and  C_21
REMARK    6  A    between atoms: C_21  and  C_23
REMARK                            x       y       z     vdW  Elec       q    Type
REMARK                         _______ _______ _______ _____ _____    ______ ____
ROOT
ATOM      1  C   UNL     1     -56.646 -41.520 -78.561  0.00  0.00    +0.000 A 
ATOM      2  N   UNL     1     -56.009 -41.691 -79.806  0.00  0.00    +0.000 N 
ATOM      3  C   UNL     1     -54.611 -41.937 -79.875  0.00  0.00    +0.000 A 
ATOM      4  C   UNL     1     -53.984 -42.492 -81.006  0.00  0.00    +0.000 A 
ATOM      5 BR   UNL     1     -55.002 -43.129 -82.475  0.00  0.00    +0.000 Br
ATOM      6  C   UNL     1     -52.589 -42.616 -81.076  0.00  0.00    +0.000 A 
ATOM      7  C   UNL     1     -51.804 -42.206 -79.992  0.00  0.00    +0.000 A 
ATOM      8  C   UNL     1     -52.402 -41.654 -78.860  0.00  0.00    +0.000 A 
ATOM      9 CL   UNL     1     -51.352 -41.248 -77.551  0.00  0.00    +0.000 Cl
ATOM     10  C   UNL     1     -53.796 -41.503 -78.817  0.00  0.00    +0.000 A 
ATOM     11  C   UNL     1     -54.510 -40.853 -77.701  0.00  0.00    +0.000 A 
ATOM     12  O   UNL     1     -53.993 -39.964 -77.036  0.00  0.00    +0.000 OA
ATOM     13  C   UNL     1     -55.931 -41.257 -77.445  0.00  0.00    +0.000 A 
ATOM     14  H   UNL     1     -56.564 -42.269 -80.451  0.00  0.00    +0.000 HD
ENDROOT
BRANCH   1  15
ATOM     15  S   UNL     1     -58.355 -42.123 -78.565  0.00  0.00    +0.000 S 
ATOM     16  O   UNL     1     -58.224 -43.604 -78.795  0.00  0.00    +0.000 OA
BRANCH  15  17
ATOM     17  C   UNL     1     -59.240 -41.427 -79.991  0.00  0.00    +0.000 C 
BRANCH  17  21
ATOM     18  C   UNL     1     -61.941 -37.269 -78.715  0.00  0.00    +0.000 C 
ATOM     19  C   UNL     1     -61.218 -38.421 -79.284  0.00  0.00    +0.000 A 
ATOM     20  C   UNL     1     -60.385 -39.388 -78.772  0.00  0.00    +0.000 A 
ATOM     21  C   UNL     1     -60.124 -40.246 -79.864  0.00  0.00    +0.000 A 
ATOM     22  N   UNL     1     -60.710 -39.779 -80.980  0.00  0.00    +0.000 NA
ATOM     23  O   UNL     1     -61.393 -38.639 -80.612  0.00  0.00    +0.000 OA
ENDBRANCH  17  21
ENDBRANCH  15  17
ENDBRANCH   1  15
BRANCH  13  24
ATOM     24  C   UNL     1     -56.246 -41.460 -76.002  0.00  0.00    +0.000 C 
ATOM     25  O   UNL     1     -56.949 -40.664 -75.403  0.00  0.00    +0.000 OA
BRANCH  24  26
ATOM     26  C   UNL     1     -55.731 -42.665 -75.324  0.00  0.00    +0.000 C 
ATOM     27  C   UNL     1     -55.721 -43.981 -76.059  0.00  0.00    +0.000 C 
ATOM     28  C   UNL     1     -56.656 -43.783 -74.905  0.00  0.00    +0.000 C 
ENDBRANCH  24  26
ENDBRANCH  13  24
TORSDOF 5
