REMARK VINA RESULT:    -6.721      4.590      8.186
REMARK INTER + INTRA:          -9.593
REMARK INTER:                  -9.227
REMARK INTRA:                  -0.366
REMARK UNBOUND:                -0.908
REMARK  Name = 
REMARK  6 active torsions:
REMARK  status: ('A' for Active; 'I' for Inactive)
REMARK    1  A    between atoms: C_1  and  C_2
REMARK    2  A    between atoms: C_4  and  C_5
REMARK    3  A    between atoms: C_5  and  S_6
REMARK    4  A    between atoms: S_6  and  C_8
REMARK    5  A    between atoms: C_20  and  C_21
REMARK    6  A    between atoms: C_21  and  C_23
REMARK                            x       y       z     vdW  Elec       q    Type
REMARK                         _______ _______ _______ _____ _____    ______ ____
ROOT
ATOM      1  C   UNL     1     -53.501 -42.234 -78.567  0.00  0.00    +0.000 A 
ATOM      2  N   UNL     1     -54.681 -42.987 -78.721  0.00  0.00    +0.000 N 
ATOM      3  C   UNL     1     -55.666 -43.005 -77.696  0.00  0.00    +0.000 A 
ATOM      4  C   UNL     1     -57.000 -43.393 -77.920  0.00  0.00    +0.000 A 
ATOM      5 BR   UNL     1     -57.633 -43.756 -79.671  0.00  0.00    +0.000 Br
ATOM      6  C   UNL     1     -57.912 -43.502 -76.861  0.00  0.00    +0.000 A 
ATOM      7  C   UNL     1     -57.501 -43.193 -75.559  0.00  0.00    +0.000 A 
ATOM      8  C   UNL     1     -56.184 -42.804 -75.313  0.00  0.00    +0.000 A 
ATOM      9 CL   UNL     1     -55.796 -42.376 -73.685  0.00  0.00    +0.000 Cl
ATOM     10  C   UNL     1     -55.272 -42.734 -76.376  0.00  0.00    +0.000 A 
ATOM     11  C   UNL     1     -53.842 -42.415 -76.201  0.00  0.00    +0.000 A 
ATOM     12  O   UNL     1     -53.237 -42.709 -75.177  0.00  0.00    +0.000 OA
ATOM     13  C   UNL     1     -53.115 -41.786 -77.352  0.00  0.00    +0.000 A 
ATOM     14  H   UNL     1     -55.071 -42.910 -79.670  0.00  0.00    +0.000 HD
ENDROOT
BRANCH   1  15
ATOM     15  S   UNL     1     -52.874 -41.592 -80.142  0.00  0.00    +0.000 S 
ATOM     16  O   UNL     1     -53.969 -41.899 -81.127  0.00  0.00    +0.000 OA
BRANCH  15  17
ATOM     17  C   UNL     1     -51.409 -42.541 -80.644  0.00  0.00    +0.000 C 
BRANCH  17  21
ATOM     18  C   UNL     1     -49.948 -43.039 -85.526  0.00  0.00    +0.000 C 
ATOM     19  C   UNL     1     -50.443 -43.095 -84.138  0.00  0.00    +0.000 A 
ATOM     20  C   UNL     1     -50.373 -42.255 -83.052  0.00  0.00    +0.000 A 
ATOM     21  C   UNL     1     -51.150 -42.891 -82.060  0.00  0.00    +0.000 A 
ATOM     22  N   UNL     1     -51.601 -44.078 -82.503  0.00  0.00    +0.000 NA
ATOM     23  O   UNL     1     -51.157 -44.199 -83.804  0.00  0.00    +0.000 OA
ENDBRANCH  17  21
ENDBRANCH  15  17
ENDBRANCH   1  15
BRANCH  13  24
ATOM     24  C   UNL     1     -52.223 -40.659 -76.954  0.00  0.00    +0.000 C 
ATOM     25  O   UNL     1     -52.682 -39.548 -76.751  0.00  0.00    +0.000 OA
BRANCH  24  26
ATOM     26  C   UNL     1     -50.785 -40.924 -76.763  0.00  0.00    +0.000 C 
ATOM     27  C   UNL     1     -50.277 -41.313 -75.398  0.00  0.00    +0.000 C 
ATOM     28  C   UNL     1     -49.913 -39.978 -75.973  0.00  0.00    +0.000 C 
ENDBRANCH  24  26
ENDBRANCH  13  24
TORSDOF 5
