=
 OpenBabel09152518123D

 28 30  0  0  0  0  0  0  0  0999 V2000
  -55.8720  -42.6360  -76.5560 C   0  0  0  0  0  0  0  0  0  0  0  0
  -54.5670  -43.0360  -76.2860 N   0  0  0  0  0  0  0  0  0  0  0  0
  -53.5060  -42.1110  -76.2410 C   0  0  0  0  0  0  0  0  0  0  0  0
  -52.2940  -42.3920  -75.5810 C   0  0  0  0  0  0  0  0  0  0  0  0
  -52.0820  -43.9820  -74.5680 Br  0  0  0  0  0  0  0  0  0  0  0  0
  -51.2290  -41.4890  -75.6180 C   0  0  0  0  0  3  0  0  0  0  0  0
  -51.3600  -40.2890  -76.3110 C   0  0  0  0  0  3  0  0  0  0  0  0
  -52.5640  -39.9850  -76.9710 C   0  0  0  0  0  0  0  0  0  0  0  0
  -52.6330  -38.4380  -77.7350 Cl  0  0  0  0  0  0  0  0  0  0  0  0
  -53.6370  -40.9000  -76.9400 C   0  0  0  0  0  0  0  0  0  0  0  0
  -54.9350  -40.6880  -77.6300 C   0  0  0  0  0  0  0  0  0  0  0  0
  -55.0020  -39.9350  -78.5970 O   0  0  0  0  0  0  0  0  0  0  0  0
  -56.1620  -41.4410  -77.1240 C   0  0  0  0  0  0  0  0  0  0  0  0
  -54.5000  -43.8330  -75.6380 H   0  0  0  0  0  0  0  0  0  0  0  0
  -57.0930  -43.8110  -75.8560 S   0  0  2  0  0  0  0  0  0  0  0  0
  -57.8020  -44.3550  -77.0670 O   0  0  0  0  0  0  0  0  0  0  0  0
  -58.2460  -42.7270  -74.9490 C   0  0  0  0  0  2  0  0  0  0  0  0
  -55.7930  -41.1610  -70.6680 C   0  0  0  0  0  1  0  0  0  0  0  0
  -56.5740  -41.4170  -71.8980 C   0  0  0  0  0  0  0  0  0  0  0  0
  -56.6590  -42.4530  -72.8000 C   0  0  0  0  0  3  0  0  0  0  0  0
  -57.6490  -42.0460  -73.7400 C   0  0  0  0  0  0  0  0  0  0  0  0
  -58.1070  -40.8240  -73.4180 N   0  0  0  0  0  0  0  0  0  0  0  0
  -57.4390  -40.4400  -72.2710 O   0  0  0  0  0  0  0  0  0  0  0  0
  -57.4980  -40.7500  -77.2840 C   0  0  0  0  0  0  0  0  0  0  0  0
  -57.7690  -39.7620  -76.6040 O   0  0  0  0  0  0  0  0  0  0  0  0
  -58.5480  -41.3120  -78.2430 C   0  0  0  0  0  3  0  0  0  0  0  0
  -59.6730  -40.3130  -78.4990 C   0  0  0  0  0  1  0  0  0  0  0  0
  -57.9290  -41.7650  -79.5680 C   0  0  0  0  0  1  0  0  0  0  0  0
  1  2  1  0  0  0  0
  1 15  1  0  0  0  0
  2  3  1  0  0  0  0
  2 14  1  0  0  0  0
  3  4  1  0  0  0  0
  4  5  1  0  0  0  0
  6  4  2  0  0  0  0
  7  6  1  0  0  0  0
  8 10  1  0  0  0  0
  8  7  2  0  0  0  0
  9  8  1  0  0  0  0
 10  3  2  0  0  0  0
 11 13  1  0  0  0  0
 11 10  1  0  0  0  0
 12 11  2  0  0  0  0
 13  1  2  0  0  0  0
 15 16  2  6  0  0  0
 15 17  1  0  0  0  0
 17 21  1  0  0  0  0
 19 18  1  0  0  0  0
 20 19  2  0  0  0  0
 21 22  2  0  0  0  0
 21 20  1  0  0  0  0
 22 23  1  0  0  0  0
 23 19  1  0  0  0  0
 24 13  1  0  0  0  0
 24 25  2  0  0  0  0
 26 24  1  0  0  0  0
 27 26  1  0  0  0  0
 28 26  1  0  0  0  0
M  END
>  <MODEL>
1

>  <REMARK>
 VINA RESULT:    -7.466      0.000      0.000
 INTER + INTRA:         -10.522
 INTER:                  -9.648
 INTRA:                  -0.874
 UNBOUND:                -0.874
  Name = 
  8 active torsions:
  status: ('A' for Active; 'I' for Inactive)
    1  A    between atoms: C_1  and  C_2
    2  A    between atoms: C_4  and  C_5
    3  A    between atoms: C_5  and  S_6
    4  A    between atoms: S_6  and  C_8
    5  A    between atoms: C_20  and  C_21
    6  A    between atoms: C_21  and  C_23
    7  A    between atoms: C_23  and  C_24
    8  A    between atoms: C_23  and  C_25
                            x       y       z     vdW  Elec       q    Type
                         _______ _______ _______ _____ _____    ______ ____

>  <TORSDO>
F 5

$$$$
