REMARK VINA RESULT:    -6.063     10.736     13.239
REMARK INTER + INTRA:          -8.730
REMARK INTER:                  -7.856
REMARK INTRA:                  -0.874
REMARK UNBOUND:                -0.894
REMARK  Name = 
REMARK  8 active torsions:
REMARK  status: ('A' for Active; 'I' for Inactive)
REMARK    1  A    between atoms: C_1  and  C_2
REMARK    2  A    between atoms: C_4  and  C_5
REMARK    3  A    between atoms: C_5  and  S_6
REMARK    4  A    between atoms: S_6  and  C_8
REMARK    5  A    between atoms: C_20  and  C_21
REMARK    6  A    between atoms: C_21  and  C_23
REMARK    7  A    between atoms: C_23  and  C_24
REMARK    8  A    between atoms: C_23  and  C_25
REMARK                            x       y       z     vdW  Elec       q    Type
REMARK                         _______ _______ _______ _____ _____    ______ ____
ROOT
ATOM      1  C   UNL     1     -57.578 -40.796 -63.158  0.00  0.00    +0.000 A 
ATOM      2  N   UNL     1     -57.122 -39.552 -62.732  0.00  0.00    +0.000 N 
ATOM      3  C   UNL     1     -56.002 -38.930 -63.325  0.00  0.00    +0.000 A 
ATOM      4  C   UNL     1     -55.757 -37.549 -63.195  0.00  0.00    +0.000 A 
ATOM      5 CL   UNL     1     -56.914 -36.515 -62.434  0.00  0.00    +0.000 Cl
ATOM      6  C   UNL     1     -54.591 -36.975 -63.700  0.00  0.00    +0.000 A 
ATOM      7  C   UNL     1     -53.650 -37.779 -64.347  0.00  0.00    +0.000 A 
ATOM      8  C   UNL     1     -53.882 -39.152 -64.499  0.00  0.00    +0.000 A 
ATOM      9 CL   UNL     1     -52.681 -40.029 -65.375  0.00  0.00    +0.000 Cl
ATOM     10  C   UNL     1     -55.051 -39.727 -63.977  0.00  0.00    +0.000 A 
ATOM     11  C   UNL     1     -55.364 -41.179 -64.008  0.00  0.00    +0.000 A 
ATOM     12  O   UNL     1     -54.445 -41.988 -64.033  0.00  0.00    +0.000 OA
ATOM     13  C   UNL     1     -56.816 -41.631 -63.920  0.00  0.00    +0.000 A 
ATOM     14  H   UNL     1     -57.875 -38.915 -62.440  0.00  0.00    +0.000 HD
ENDROOT
BRANCH   1  15
ATOM     15  S   UNL     1     -59.363 -41.015 -62.776  0.00  0.00    +0.000 S 
ATOM     16  O   UNL     1     -60.008 -41.114 -64.131  0.00  0.00    +0.000 OA
BRANCH  15  17
ATOM     17  C   UNL     1     -59.830 -39.386 -62.061  0.00  0.00    +0.000 C 
BRANCH  17  21
ATOM     18  C   UNL     1     -64.301 -40.073 -59.557  0.00  0.00    +0.000 C 
ATOM     19  C   UNL     1     -63.101 -39.694 -60.334  0.00  0.00    +0.000 A 
ATOM     20  C   UNL     1     -61.827 -40.194 -60.466  0.00  0.00    +0.000 A 
ATOM     21  C   UNL     1     -61.199 -39.356 -61.430  0.00  0.00    +0.000 A 
ATOM     22  N   UNL     1     -62.050 -38.392 -61.821  0.00  0.00    +0.000 NA
ATOM     23  O   UNL     1     -63.232 -38.610 -61.141  0.00  0.00    +0.000 OA
ENDBRANCH  17  21
ENDBRANCH  15  17
ENDBRANCH   1  15
BRANCH  13  24
ATOM     24  C   UNL     1     -57.136 -42.891 -64.697  0.00  0.00    +0.000 C 
ATOM     25  O   UNL     1     -57.324 -43.956 -64.094  0.00  0.00    +0.000 OA
BRANCH  24  26
ATOM     26  C   UNL     1     -57.091 -42.941 -66.213  0.00  0.00    +0.000 C 
ATOM     27  C   UNL     1     -57.913 -44.114 -66.712  0.00  0.00    +0.000 C 
ATOM     28  C   UNL     1     -57.493 -41.607 -66.832  0.00  0.00    +0.000 C 
ENDBRANCH  24  26
ENDBRANCH  13  24
TORSDOF 5
