REMARK VINA RESULT:    -7.536      0.000      0.000
REMARK INTER + INTRA:         -10.664
REMARK INTER:                  -9.739
REMARK INTRA:                  -0.925
REMARK UNBOUND:                -0.925
REMARK  Name = 
REMARK  8 active torsions:
REMARK  status: ('A' for Active; 'I' for Inactive)
REMARK    1  A    between atoms: C_1  and  C_2
REMARK    2  A    between atoms: C_4  and  C_5
REMARK    3  A    between atoms: C_5  and  S_6
REMARK    4  A    between atoms: S_6  and  C_8
REMARK    5  A    between atoms: C_20  and  C_21
REMARK    6  A    between atoms: C_21  and  C_23
REMARK    7  A    between atoms: C_23  and  C_24
REMARK    8  A    between atoms: C_23  and  C_25
REMARK                            x       y       z     vdW  Elec       q    Type
REMARK                         _______ _______ _______ _____ _____    ______ ____
ROOT
ATOM      1  C   UNL     1     -55.755 -42.659 -76.665  0.00  0.00    +0.000 A 
ATOM      2  N   UNL     1     -54.425 -42.972 -76.392  0.00  0.00    +0.000 N 
ATOM      3  C   UNL     1     -53.431 -41.974 -76.314  0.00  0.00    +0.000 A 
ATOM      4  C   UNL     1     -52.196 -42.197 -75.674  0.00  0.00    +0.000 A 
ATOM      5 CL   UNL     1     -51.904 -43.662 -74.805  0.00  0.00    +0.000 Cl
ATOM      6  C   UNL     1     -51.188 -41.233 -75.700  0.00  0.00    +0.000 A 
ATOM      7  C   UNL     1     -51.404 -40.026 -76.368  0.00  0.00    +0.000 A 
ATOM      8  C   UNL     1     -52.631 -39.780 -76.998  0.00  0.00    +0.000 A 
ATOM      9 CL   UNL     1     -52.804 -38.228 -77.732  0.00  0.00    +0.000 Cl
ATOM     10  C   UNL     1     -53.636 -40.758 -76.981  0.00  0.00    +0.000 A 
ATOM     11  C   UNL     1     -54.941 -40.639 -77.681  0.00  0.00    +0.000 A 
ATOM     12  O   UNL     1     -55.020 -39.940 -78.683  0.00  0.00    +0.000 OA
ATOM     13  C   UNL     1     -56.129 -41.458 -77.190  0.00  0.00    +0.000 A 
ATOM     14  H   UNL     1     -54.314 -43.756 -75.736  0.00  0.00    +0.000 HD
ENDROOT
BRANCH   1  15
ATOM     15  S   UNL     1     -56.888 -43.947 -76.005  0.00  0.00    +0.000 S 
ATOM     16  O   UNL     1     -57.544 -44.510 -77.237  0.00  0.00    +0.000 OA
BRANCH  15  17
ATOM     17  C   UNL     1     -58.154 -42.956 -75.111  0.00  0.00    +0.000 C 
BRANCH  17  21
ATOM     18  C   UNL     1     -55.778 -41.448 -70.774  0.00  0.00    +0.000 C 
ATOM     19  C   UNL     1     -56.625 -41.783 -71.938  0.00  0.00    +0.000 A 
ATOM     20  C   UNL     1     -56.402 -42.323 -73.183  0.00  0.00    +0.000 A 
ATOM     21  C   UNL     1     -57.690 -42.412 -73.783  0.00  0.00    +0.000 A 
ATOM     22  N   UNL     1     -58.619 -41.918 -72.948  0.00  0.00    +0.000 NA
ATOM     23  O   UNL     1     -57.953 -41.534 -71.800  0.00  0.00    +0.000 OA
ENDBRANCH  17  21
ENDBRANCH  15  17
ENDBRANCH   1  15
BRANCH  13  24
ATOM     24  C   UNL     1     -57.475 -40.784 -77.356  0.00  0.00    +0.000 C 
ATOM     25  O   UNL     1     -57.777 -39.825 -76.634  0.00  0.00    +0.000 OA
BRANCH  24  26
ATOM     26  C   UNL     1     -58.547 -41.334 -78.279  0.00  0.00    +0.000 C 
ATOM     27  C   UNL     1     -59.661 -40.316 -78.433  0.00  0.00    +0.000 C 
ATOM     28  C   UNL     1     -57.961 -41.803 -79.605  0.00  0.00    +0.000 C 
ENDBRANCH  24  26
ENDBRANCH  13  24
TORSDOF 5
