REMARK VINA RESULT:    -6.904      2.741      4.080
REMARK INTER + INTRA:          -9.813
REMARK INTER:                  -8.905
REMARK INTRA:                  -0.908
REMARK UNBOUND:                -0.891
REMARK  Name = 
REMARK  6 active torsions:
REMARK  status: ('A' for Active; 'I' for Inactive)
REMARK    1  A    between atoms: C_1  and  C_2
REMARK    2  A    between atoms: C_4  and  C_5
REMARK    3  A    between atoms: C_5  and  S_6
REMARK    4  A    between atoms: S_6  and  C_8
REMARK    5  A    between atoms: C_20  and  C_21
REMARK    6  A    between atoms: C_21  and  C_23
REMARK                            x       y       z     vdW  Elec       q    Type
REMARK                         _______ _______ _______ _____ _____    ______ ____
ROOT
ATOM      1  C   UNL     1     -55.669 -42.191 -76.861  0.00  0.00    +0.000 A 
ATOM      2  N   UNL     1     -54.903 -41.013 -76.950  0.00  0.00    +0.000 N 
ATOM      3  C   UNL     1     -53.507 -41.035 -76.683  0.00  0.00    +0.000 A 
ATOM      4  C   UNL     1     -52.625 -40.027 -77.117  0.00  0.00    +0.000 A 
ATOM      5 BR   UNL     1     -53.218 -38.634 -78.260  0.00  0.00    +0.000 Br
ATOM      6  C   UNL     1     -51.276 -40.032 -76.739  0.00  0.00    +0.000 A 
ATOM      7  C   UNL     1     -50.784 -41.069 -75.938  0.00  0.00    +0.000 A 
ATOM      8  C   UNL     1     -51.638 -42.081 -75.497  0.00  0.00    +0.000 A 
ATOM      9 CL   UNL     1     -50.920 -43.352 -74.576  0.00  0.00    +0.000 Cl
ATOM     10  C   UNL     1     -52.995 -42.046 -75.853  0.00  0.00    +0.000 A 
ATOM     11  C   UNL     1     -53.989 -43.022 -75.366  0.00  0.00    +0.000 A 
ATOM     12  O   UNL     1     -53.878 -43.563 -74.273  0.00  0.00    +0.000 OA
ATOM     13  C   UNL     1     -55.196 -43.281 -76.217  0.00  0.00    +0.000 A 
ATOM     14  H   UNL     1     -55.160 -40.442 -77.767  0.00  0.00    +0.000 HD
ENDROOT
BRANCH   1  15
ATOM     15  S   UNL     1     -57.051 -42.214 -78.033  0.00  0.00    +0.000 S 
ATOM     16  O   UNL     1     -56.758 -41.074 -78.971  0.00  0.00    +0.000 OA
BRANCH  15  17
ATOM     17  C   UNL     1     -58.594 -41.816 -77.159  0.00  0.00    +0.000 C 
BRANCH  17  21
ATOM     18  C   UNL     1     -59.047 -41.535 -72.067  0.00  0.00    +0.000 C 
ATOM     19  C   UNL     1     -58.779 -41.454 -73.515  0.00  0.00    +0.000 A 
ATOM     20  C   UNL     1     -59.150 -42.198 -74.610  0.00  0.00    +0.000 A 
ATOM     21  C   UNL     1     -58.614 -41.497 -75.713  0.00  0.00    +0.000 A 
ATOM     22  N   UNL     1     -57.904 -40.434 -75.297  0.00  0.00    +0.000 NA
ATOM     23  O   UNL     1     -58.013 -40.411 -73.922  0.00  0.00    +0.000 OA
ENDBRANCH  17  21
ENDBRANCH  15  17
ENDBRANCH   1  15
BRANCH  13  24
ATOM     24  C   UNL     1     -55.549 -44.725 -76.333  0.00  0.00    +0.000 C 
ATOM     25  O   UNL     1     -56.697 -45.098 -76.163  0.00  0.00    +0.000 OA
BRANCH  24  26
ATOM     26  C   UNL     1     -54.494 -45.687 -76.703  0.00  0.00    +0.000 C 
ATOM     27  C   UNL     1     -54.836 -47.149 -76.832  0.00  0.00    +0.000 C 
ATOM     28  C   UNL     1     -53.963 -46.689 -75.705  0.00  0.00    +0.000 C 
ENDBRANCH  24  26
ENDBRANCH  13  24
TORSDOF 5
