REMARK VINA RESULT:    -5.902     11.689     14.831
REMARK INTER + INTRA:          -8.420
REMARK INTER:                  -7.856
REMARK INTRA:                  -0.564
REMARK UNBOUND:                -0.794
REMARK  Name = 
REMARK  8 active torsions:
REMARK  status: ('A' for Active; 'I' for Inactive)
REMARK    1  A    between atoms: C_1  and  C_2
REMARK    2  A    between atoms: C_4  and  C_5
REMARK    3  A    between atoms: C_5  and  S_6
REMARK    4  A    between atoms: S_6  and  C_8
REMARK    5  A    between atoms: C_20  and  C_21
REMARK    6  A    between atoms: C_21  and  C_23
REMARK    7  A    between atoms: C_23  and  C_24
REMARK    8  A    between atoms: C_23  and  C_25
REMARK                            x       y       z     vdW  Elec       q    Type
REMARK                         _______ _______ _______ _____ _____    ______ ____
ROOT
ATOM      1  C   UNL     1     -56.655 -41.229 -61.593  0.00  0.00    +0.000 A 
ATOM      2  N   UNL     1     -56.614 -41.783 -60.317  0.00  0.00    +0.000 N 
ATOM      3  C   UNL     1     -55.653 -42.750 -59.962  0.00  0.00    +0.000 A 
ATOM      4  C   UNL     1     -55.318 -43.015 -58.621  0.00  0.00    +0.000 A 
ATOM      5 BR   UNL     1     -56.028 -41.963 -57.211  0.00  0.00    +0.000 Br
ATOM      6  C   UNL     1     -54.418 -44.033 -58.292  0.00  0.00    +0.000 A 
ATOM      7  C   UNL     1     -53.837 -44.798 -59.300  0.00  0.00    +0.000 A 
ATOM      8  C   UNL     1     -54.153 -44.544 -60.647  0.00  0.00    +0.000 A 
ATOM      9 CL   UNL     1     -53.317 -45.509 -61.809  0.00  0.00    +0.000 Cl
ATOM     10  C   UNL     1     -55.066 -43.522 -60.978  0.00  0.00    +0.000 A 
ATOM     11  C   UNL     1     -55.490 -43.198 -62.364  0.00  0.00    +0.000 A 
ATOM     12  O   UNL     1     -55.415 -44.049 -63.245  0.00  0.00    +0.000 OA
ATOM     13  C   UNL     1     -56.036 -41.802 -62.652  0.00  0.00    +0.000 A 
ATOM     14  H   UNL     1     -56.900 -41.134 -59.571  0.00  0.00    +0.000 HD
ENDROOT
BRANCH   1  15
ATOM     15  S   UNL     1     -57.439 -39.572 -61.580  0.00  0.00    +0.000 S 
ATOM     16  O   UNL     1     -58.391 -39.617 -62.745  0.00  0.00    +0.000 OA
BRANCH  15  17
ATOM     17  C   UNL     1     -56.061 -38.453 -62.003  0.00  0.00    +0.000 C 
BRANCH  17  21
ATOM     18  C   UNL     1     -58.271 -33.845 -62.827  0.00  0.00    +0.000 C 
ATOM     19  C   UNL     1     -57.470 -35.080 -62.678  0.00  0.00    +0.000 A 
ATOM     20  C   UNL     1     -57.662 -36.297 -62.065  0.00  0.00    +0.000 A 
ATOM     21  C   UNL     1     -56.480 -37.042 -62.344  0.00  0.00    +0.000 A 
ATOM     22  N   UNL     1     -55.628 -36.292 -63.066  0.00  0.00    +0.000 NA
ATOM     23  O   UNL     1     -56.250 -35.076 -63.273  0.00  0.00    +0.000 OA
ENDBRANCH  17  21
ENDBRANCH  15  17
ENDBRANCH   1  15
BRANCH  13  24
ATOM     24  C   UNL     1     -55.783 -41.246 -64.036  0.00  0.00    +0.000 C 
ATOM     25  O   UNL     1     -54.736 -40.647 -64.280  0.00  0.00    +0.000 OA
BRANCH  24  26
ATOM     26  C   UNL     1     -56.851 -41.364 -65.123  0.00  0.00    +0.000 C 
ATOM     27  C   UNL     1     -56.251 -41.782 -66.463  0.00  0.00    +0.000 C 
ATOM     28  C   UNL     1     -57.973 -42.325 -64.721  0.00  0.00    +0.000 C 
ENDBRANCH  24  26
ENDBRANCH  13  24
TORSDOF 5
