REMARK VINA RESULT:    -5.499     11.487     14.856
REMARK INTER + INTRA:          -8.008
REMARK INTER:                  -6.868
REMARK INTRA:                  -1.141
REMARK UNBOUND:                -0.901
REMARK  Name = 
REMARK  6 active torsions:
REMARK  status: ('A' for Active; 'I' for Inactive)
REMARK    1  A    between atoms: C_1  and  C_2
REMARK    2  A    between atoms: C_4  and  C_5
REMARK    3  A    between atoms: C_5  and  S_6
REMARK    4  A    between atoms: S_6  and  C_8
REMARK    5  A    between atoms: C_20  and  C_21
REMARK    6  A    between atoms: C_21  and  C_23
REMARK                            x       y       z     vdW  Elec       q    Type
REMARK                         _______ _______ _______ _____ _____    ______ ____
ROOT
ATOM      1  C   UNL     1     -57.836 -44.538 -77.875  0.00  0.00    +0.000 A 
ATOM      2  N   UNL     1     -56.881 -45.122 -77.021  0.00  0.00    +0.000 N 
ATOM      3  C   UNL     1     -56.633 -46.522 -77.061  0.00  0.00    +0.000 A 
ATOM      4  C   UNL     1     -55.462 -47.109 -76.547  0.00  0.00    +0.000 A 
ATOM      5 BR   UNL     1     -54.028 -46.042 -75.912  0.00  0.00    +0.000 Br
ATOM      6  C   UNL     1     -55.306 -48.502 -76.508  0.00  0.00    +0.000 A 
ATOM      7  C   UNL     1     -56.318 -49.326 -77.013  0.00  0.00    +0.000 A 
ATOM      8  C   UNL     1     -57.487 -48.767 -77.530  0.00  0.00    +0.000 A 
ATOM      9 CL   UNL     1     -58.642 -49.865 -78.194  0.00  0.00    +0.000 Cl
ATOM     10  C   UNL     1     -57.646 -47.372 -77.531  0.00  0.00    +0.000 A 
ATOM     11  C   UNL     1     -58.879 -46.695 -77.977  0.00  0.00    +0.000 A 
ATOM     12  O   UNL     1     -59.979 -47.221 -77.865  0.00  0.00    +0.000 OA
ATOM     13  C   UNL     1     -58.761 -45.296 -78.505  0.00  0.00    +0.000 A 
ATOM     14  H   UNL     1     -56.027 -44.552 -76.944  0.00  0.00    +0.000 HD
ENDROOT
BRANCH   1  15
ATOM     15  S   UNL     1     -57.401 -42.845 -78.353  0.00  0.00    +0.000 S 
ATOM     16  O   UNL     1     -56.038 -42.631 -77.754  0.00  0.00    +0.000 OA
BRANCH  15  17
ATOM     17  C   UNL     1     -58.537 -41.677 -77.549  0.00  0.00    +0.000 C 
BRANCH  17  21
ATOM     18  C   UNL     1     -58.649 -41.482 -72.433  0.00  0.00    +0.000 C 
ATOM     19  C   UNL     1     -58.479 -41.376 -73.895  0.00  0.00    +0.000 A 
ATOM     20  C   UNL     1     -58.922 -42.102 -74.975  0.00  0.00    +0.000 A 
ATOM     21  C   UNL     1     -58.461 -41.383 -76.099  0.00  0.00    +0.000 A 
ATOM     22  N   UNL     1     -57.724 -40.326 -75.714  0.00  0.00    +0.000 NA
ATOM     23  O   UNL     1     -57.740 -40.326 -74.335  0.00  0.00    +0.000 OA
ENDBRANCH  17  21
ENDBRANCH  15  17
ENDBRANCH   1  15
BRANCH  13  24
ATOM     24  C   UNL     1     -59.562 -45.052 -79.738  0.00  0.00    +0.000 C 
ATOM     25  O   UNL     1     -59.258 -45.586 -80.790  0.00  0.00    +0.000 OA
BRANCH  24  26
ATOM     26  C   UNL     1     -60.757 -44.191 -79.651  0.00  0.00    +0.000 C 
ATOM     27  C   UNL     1     -61.400 -43.950 -78.310  0.00  0.00    +0.000 C 
ATOM     28  C   UNL     1     -62.117 -44.769 -79.339  0.00  0.00    +0.000 C 
ENDBRANCH  24  26
ENDBRANCH  13  24
TORSDOF 5
