REMARK VINA RESULT:    -5.349     24.712     27.426
REMARK INTER + INTRA:          -7.803
REMARK INTER:                  -6.878
REMARK INTRA:                  -0.926
REMARK UNBOUND:                -0.891
REMARK  Name = 
REMARK  6 active torsions:
REMARK  status: ('A' for Active; 'I' for Inactive)
REMARK    1  A    between atoms: C_1  and  C_2
REMARK    2  A    between atoms: C_4  and  C_5
REMARK    3  A    between atoms: C_5  and  S_6
REMARK    4  A    between atoms: S_6  and  C_8
REMARK    5  A    between atoms: C_20  and  C_21
REMARK    6  A    between atoms: C_21  and  C_23
REMARK                            x       y       z     vdW  Elec       q    Type
REMARK                         _______ _______ _______ _____ _____    ______ ____
ROOT
ATOM      1  C   UNL     1     -68.651 -50.765 -52.392  0.00  0.00    +0.000 A 
ATOM      2  N   UNL     1     -68.930 -49.813 -53.392  0.00  0.00    +0.000 N 
ATOM      3  C   UNL     1     -67.881 -49.251 -54.169  0.00  0.00    +0.000 A 
ATOM      4  C   UNL     1     -68.097 -48.617 -55.407  0.00  0.00    +0.000 A 
ATOM      5 BR   UNL     1     -69.808 -48.625 -56.226  0.00  0.00    +0.000 Br
ATOM      6  C   UNL     1     -67.050 -47.980 -56.088  0.00  0.00    +0.000 A 
ATOM      7  C   UNL     1     -65.760 -47.994 -55.544  0.00  0.00    +0.000 A 
ATOM      8  C   UNL     1     -65.521 -48.618 -54.319  0.00  0.00    +0.000 A 
ATOM      9 CL   UNL     1     -63.884 -48.643 -53.771  0.00  0.00    +0.000 Cl
ATOM     10  C   UNL     1     -66.584 -49.221 -53.631  0.00  0.00    +0.000 A 
ATOM     11  C   UNL     1     -66.446 -49.828 -52.293  0.00  0.00    +0.000 A 
ATOM     12  O   UNL     1     -65.628 -49.416 -51.480  0.00  0.00    +0.000 OA
ATOM     13  C   UNL     1     -67.396 -50.926 -51.917  0.00  0.00    +0.000 A 
ATOM     14  H   UNL     1     -69.766 -50.058 -53.940  0.00  0.00    +0.000 HD
ENDROOT
BRANCH   1  15
ATOM     15  S   UNL     1     -69.988 -51.970 -52.184  0.00  0.00    +0.000 S 
ATOM     16  O   UNL     1     -69.671 -52.653 -50.882  0.00  0.00    +0.000 OA
BRANCH  15  17
ATOM     17  C   UNL     1     -69.883 -53.224 -53.496  0.00  0.00    +0.000 C 
BRANCH  17  21
ATOM     18  C   UNL     1     -71.242 -52.076 -58.297  0.00  0.00    +0.000 C 
ATOM     19  C   UNL     1     -70.660 -52.326 -56.965  0.00  0.00    +0.000 A 
ATOM     20  C   UNL     1     -71.150 -52.791 -55.768  0.00  0.00    +0.000 A 
ATOM     21  C   UNL     1     -70.017 -52.871 -54.928  0.00  0.00    +0.000 A 
ATOM     22  N   UNL     1     -68.925 -52.414 -55.565  0.00  0.00    +0.000 NA
ATOM     23  O   UNL     1     -69.332 -52.076 -56.838  0.00  0.00    +0.000 OA
ENDBRANCH  17  21
ENDBRANCH  15  17
ENDBRANCH   1  15
BRANCH  13  24
ATOM     24  C   UNL     1     -66.741 -52.078 -51.234  0.00  0.00    +0.000 C 
ATOM     25  O   UNL     1     -67.040 -52.372 -50.090  0.00  0.00    +0.000 OA
BRANCH  24  26
ATOM     26  C   UNL     1     -65.760 -52.885 -51.985  0.00  0.00    +0.000 C 
ATOM     27  C   UNL     1     -65.968 -53.122 -53.458  0.00  0.00    +0.000 C 
ATOM     28  C   UNL     1     -66.108 -54.263 -52.497  0.00  0.00    +0.000 C 
ENDBRANCH  24  26
ENDBRANCH  13  24
TORSDOF 5
