REMARK VINA RESULT:    -5.906     11.448     13.812
REMARK INTER + INTRA:          -8.509
REMARK INTER:                  -7.342
REMARK INTRA:                  -1.166
REMARK UNBOUND:                -0.876
REMARK  Name = 
REMARK  6 active torsions:
REMARK  status: ('A' for Active; 'I' for Inactive)
REMARK    1  A    between atoms: C_1  and  C_2
REMARK    2  A    between atoms: C_4  and  C_5
REMARK    3  A    between atoms: C_5  and  S_6
REMARK    4  A    between atoms: S_6  and  C_8
REMARK    5  A    between atoms: C_20  and  C_21
REMARK    6  A    between atoms: C_21  and  C_23
REMARK                            x       y       z     vdW  Elec       q    Type
REMARK                         _______ _______ _______ _____ _____    ______ ____
ROOT
ATOM      1  C   UNL     1     -57.510 -41.154 -62.656  0.00  0.00    +0.000 A 
ATOM      2  N   UNL     1     -57.076 -39.869 -62.275  0.00  0.00    +0.000 N 
ATOM      3  C   UNL     1     -56.038 -39.214 -62.992  0.00  0.00    +0.000 A 
ATOM      4  C   UNL     1     -55.822 -37.824 -62.932  0.00  0.00    +0.000 A 
ATOM      5 BR   UNL     1     -57.031 -36.685 -62.015  0.00  0.00    +0.000 Br
ATOM      6  C   UNL     1     -54.721 -37.233 -63.567  0.00  0.00    +0.000 A 
ATOM      7  C   UNL     1     -53.833 -38.031 -64.297  0.00  0.00    +0.000 A 
ATOM      8  C   UNL     1     -54.027 -39.410 -64.373  0.00  0.00    +0.000 A 
ATOM      9 CL   UNL     1     -52.918 -40.294 -65.357  0.00  0.00    +0.000 Cl
ATOM     10  C   UNL     1     -55.113 -39.994 -63.703  0.00  0.00    +0.000 A 
ATOM     11  C   UNL     1     -55.350 -41.450 -63.655  0.00  0.00    +0.000 A 
ATOM     12  O   UNL     1     -54.428 -42.255 -63.696  0.00  0.00    +0.000 OA
ATOM     13  C   UNL     1     -56.761 -41.927 -63.473  0.00  0.00    +0.000 A 
ATOM     14  H   UNL     1     -57.861 -39.252 -62.024  0.00  0.00    +0.000 HD
ENDROOT
BRANCH   1  15
ATOM     15  S   UNL     1     -59.271 -41.421 -62.324  0.00  0.00    +0.000 S 
ATOM     16  O   UNL     1     -59.969 -40.414 -63.196  0.00  0.00    +0.000 OA
BRANCH  15  17
ATOM     17  C   UNL     1     -59.634 -40.990 -60.597  0.00  0.00    +0.000 C 
BRANCH  17  21
ATOM     18  C   UNL     1     -57.330 -43.497 -56.772  0.00  0.00    +0.000 C 
ATOM     19  C   UNL     1     -57.822 -42.649 -57.874  0.00  0.00    +0.000 A 
ATOM     20  C   UNL     1     -58.915 -42.684 -58.708  0.00  0.00    +0.000 A 
ATOM     21  C   UNL     1     -58.816 -41.501 -59.473  0.00  0.00    +0.000 A 
ATOM     22  N   UNL     1     -57.690 -40.833 -59.164  0.00  0.00    +0.000 NA
ATOM     23  O   UNL     1     -57.075 -41.554 -58.163  0.00  0.00    +0.000 OA
ENDBRANCH  17  21
ENDBRANCH  15  17
ENDBRANCH   1  15
BRANCH  13  24
ATOM     24  C   UNL     1     -57.127 -43.066 -64.362  0.00  0.00    +0.000 C 
ATOM     25  O   UNL     1     -57.368 -44.165 -63.892  0.00  0.00    +0.000 OA
BRANCH  24  26
ATOM     26  C   UNL     1     -57.239 -42.829 -65.813  0.00  0.00    +0.000 C 
ATOM     27  C   UNL     1     -57.638 -41.464 -66.313  0.00  0.00    +0.000 C 
ATOM     28  C   UNL     1     -58.583 -42.617 -66.470  0.00  0.00    +0.000 C 
ENDBRANCH  24  26
ENDBRANCH  13  24
TORSDOF 5
