REMARK VINA RESULT:    -5.632     14.483     17.284
REMARK INTER + INTRA:          -8.165
REMARK INTER:                  -6.945
REMARK INTRA:                  -1.221
REMARK UNBOUND:                -0.887
REMARK  Name = 
REMARK  8 active torsions:
REMARK  status: ('A' for Active; 'I' for Inactive)
REMARK    1  A    between atoms: C_1  and  C_2
REMARK    2  A    between atoms: C_4  and  C_5
REMARK    3  A    between atoms: C_5  and  S_6
REMARK    4  A    between atoms: S_6  and  C_8
REMARK    5  A    between atoms: C_20  and  C_21
REMARK    6  A    between atoms: C_21  and  C_23
REMARK    7  A    between atoms: C_23  and  C_24
REMARK    8  A    between atoms: C_23  and  C_25
REMARK                            x       y       z     vdW  Elec       q    Type
REMARK                         _______ _______ _______ _____ _____    ______ ____
ROOT
ATOM      1  C   UNL     1     -56.229 -42.010 -80.934  0.00  0.00    +0.000 A 
ATOM      2  N   UNL     1     -55.146 -42.044 -81.807  0.00  0.00    +0.000 N 
ATOM      3  C   UNL     1     -53.829 -42.226 -81.343  0.00  0.00    +0.000 A 
ATOM      4  C   UNL     1     -52.793 -42.675 -82.185  0.00  0.00    +0.000 A 
ATOM      5 BR   UNL     1     -53.151 -43.220 -83.966  0.00  0.00    +0.000 Br
ATOM      6  C   UNL     1     -51.479 -42.772 -81.719  0.00  0.00    +0.000 A 
ATOM      7  C   UNL     1     -51.181 -42.427 -80.404  0.00  0.00    +0.000 A 
ATOM      8  C   UNL     1     -52.202 -41.983 -79.544  0.00  0.00    +0.000 A 
ATOM      9 CL   UNL     1     -51.725 -41.653 -77.918  0.00  0.00    +0.000 Cl
ATOM     10  C   UNL     1     -53.527 -41.878 -80.016  0.00  0.00    +0.000 A 
ATOM     11  C   UNL     1     -54.668 -41.390 -79.199  0.00  0.00    +0.000 A 
ATOM     12  O   UNL     1     -54.465 -40.660 -78.234  0.00  0.00    +0.000 OA
ATOM     13  C   UNL     1     -56.082 -41.798 -79.604  0.00  0.00    +0.000 A 
ATOM     14  H   UNL     1     -55.363 -42.456 -82.725  0.00  0.00    +0.000 HD
ENDROOT
BRANCH   1  15
ATOM     15  S   UNL     1     -57.784 -42.494 -81.773  0.00  0.00    +0.000 S 
ATOM     16  O   UNL     1     -57.317 -43.177 -83.030  0.00  0.00    +0.000 OA
BRANCH  15  17
ATOM     17  C   UNL     1     -58.531 -40.893 -82.229  0.00  0.00    +0.000 C 
BRANCH  17  21
ATOM     18  C   UNL     1     -57.309 -39.144 -86.945  0.00  0.00    +0.000 C 
ATOM     19  C   UNL     1     -57.488 -39.545 -85.533  0.00  0.00    +0.000 A 
ATOM     20  C   UNL     1     -58.472 -40.192 -84.821  0.00  0.00    +0.000 A 
ATOM     21  C   UNL     1     -57.973 -40.275 -83.489  0.00  0.00    +0.000 A 
ATOM     22  N   UNL     1     -56.766 -39.688 -83.418  0.00  0.00    +0.000 NA
ATOM     23  O   UNL     1     -56.467 -39.240 -84.691  0.00  0.00    +0.000 OA
ENDBRANCH  17  21
ENDBRANCH  15  17
ENDBRANCH   1  15
BRANCH  13  24
ATOM     24  C   UNL     1     -57.092 -41.947 -78.488  0.00  0.00    +0.000 C 
ATOM     25  O   UNL     1     -57.191 -43.013 -77.881  0.00  0.00    +0.000 OA
BRANCH  24  26
ATOM     26  C   UNL     1     -58.042 -40.799 -78.148  0.00  0.00    +0.000 C 
ATOM     27  C   UNL     1     -59.503 -41.243 -78.185  0.00  0.00    +0.000 C 
ATOM     28  C   UNL     1     -57.714 -40.166 -76.794  0.00  0.00    +0.000 C 
ENDBRANCH  24  26
ENDBRANCH  13  24
TORSDOF 5
