REMARK VINA RESULT:    -5.652     15.184     18.120
REMARK INTER + INTRA:          -7.733
REMARK INTER:                  -6.954
REMARK INTRA:                  -0.779
REMARK UNBOUND:                -0.760
REMARK  Name = 
REMARK  6 active torsions:
REMARK  status: ('A' for Active; 'I' for Inactive)
REMARK    1  A    between atoms: C_1  and  C_2
REMARK    2  A    between atoms: C_2  and  C_4
REMARK    3  A    between atoms: C_5  and  S_6
REMARK    4  A    between atoms: S_6  and  C_8
REMARK    5  A    between atoms: C_8  and  C_9
REMARK    6  A    between atoms: C_11  and  C_12
REMARK                            x       y       z     vdW  Elec       q    Type
REMARK                         _______ _______ _______ _____ _____    ______ ____
ROOT
ATOM      1  C   UNL     1     -68.914 -51.014 -55.400  0.00  0.00    +0.000 A 
ATOM      2  C   UNL     1     -68.093 -49.936 -55.356  0.00  0.00    +0.000 A 
ATOM      3  N   UNL     1     -66.938 -49.898 -54.602  0.00  0.00    +0.000 N 
ATOM      4  C   UNL     1     -66.547 -50.937 -53.744  0.00  0.00    +0.000 A 
ATOM      5  C   UNL     1     -65.324 -50.877 -53.050  0.00  0.00    +0.000 A 
ATOM      6 BR   UNL     1     -64.181 -49.368 -53.212  0.00  0.00    +0.000 Br
ATOM      7  C   UNL     1     -64.906 -51.928 -52.236  0.00  0.00    +0.000 A 
ATOM      8  C   UNL     1     -65.713 -53.055 -52.102  0.00  0.00    +0.000 A 
ATOM      9  C   UNL     1     -66.923 -53.149 -52.803  0.00  0.00    +0.000 A 
ATOM     10 CL   UNL     1     -67.816 -54.604 -52.528  0.00  0.00    +0.000 Cl
ATOM     11  C   UNL     1     -67.328 -52.103 -53.653  0.00  0.00    +0.000 A 
ATOM     12  C   UNL     1     -68.569 -52.148 -54.471  0.00  0.00    +0.000 A 
ATOM     13  O   UNL     1     -69.342 -53.092 -54.366  0.00  0.00    +0.000 OA
ATOM     14  H   UNL     1     -66.585 -48.969 -54.370  0.00  0.00    +0.000 HD
ENDROOT
BRANCH   1  16
ATOM     15  C   UNL     1     -71.464 -50.678 -55.714  0.00  0.00    +0.000 C 
ATOM     16  C   UNL     1     -70.134 -51.130 -56.272  0.00  0.00    +0.000 C 
ATOM     17  O   UNL     1     -70.081 -51.614 -57.405  0.00  0.00    +0.000 OA
ENDBRANCH   1  16
BRANCH   2  18
ATOM     18  S   UNL     1     -68.534 -48.379 -56.197  0.00  0.00    +0.000 S 
ATOM     19  O   UNL     1     -69.572 -47.774 -55.290  0.00  0.00    +0.000 OA
BRANCH  18  20
ATOM     20  C   UNL     1     -66.993 -47.441 -55.895  0.00  0.00    +0.000 C 
BRANCH  20  21
ATOM     21  C   UNL     1     -66.132 -47.384 -57.110  0.00  0.00    +0.000 A 
ATOM     22  C   UNL     1     -66.400 -47.863 -58.418  0.00  0.00    +0.000 A 
ATOM     23  C   UNL     1     -65.314 -47.467 -59.161  0.00  0.00    +0.000 A 
ATOM     24  C   UNL     1     -64.927 -47.602 -60.577  0.00  0.00    +0.000 C 
ATOM     25  O   UNL     1     -64.446 -46.800 -58.355  0.00  0.00    +0.000 OA
ATOM     26  N   UNL     1     -64.956 -46.741 -57.070  0.00  0.00    +0.000 NA
ENDBRANCH  20  21
ENDBRANCH  18  20
ENDBRANCH   2  18
TORSDOF 4
