REMARK VINA RESULT:    -5.654      3.827      6.312
REMARK INTER + INTRA:          -8.181
REMARK INTER:                  -7.802
REMARK INTRA:                  -0.379
REMARK UNBOUND:                -0.873
REMARK  Name = 
REMARK  6 active torsions:
REMARK  status: ('A' for Active; 'I' for Inactive)
REMARK    1  A    between atoms: C_1  and  C_2
REMARK    2  A    between atoms: C_4  and  C_5
REMARK    3  A    between atoms: C_5  and  S_6
REMARK    4  A    between atoms: S_6  and  C_8
REMARK    5  A    between atoms: C_20  and  C_21
REMARK    6  A    between atoms: C_21  and  C_23
REMARK                            x       y       z     vdW  Elec       q    Type
REMARK                         _______ _______ _______ _____ _____    ______ ____
ROOT
ATOM      1  C   UNL     1     -55.375 -42.328 -77.679  0.00  0.00    +0.000 A 
ATOM      2  N   UNL     1     -56.691 -42.752 -77.411  0.00  0.00    +0.000 N 
ATOM      3  C   UNL     1     -57.271 -42.546 -76.129  0.00  0.00    +0.000 A 
ATOM      4  C   UNL     1     -58.660 -42.577 -75.901  0.00  0.00    +0.000 A 
ATOM      5 BR   UNL     1     -59.886 -42.722 -77.341  0.00  0.00    +0.000 Br
ATOM      6  C   UNL     1     -59.184 -42.479 -74.604  0.00  0.00    +0.000 A 
ATOM      7  C   UNL     1     -58.316 -42.319 -73.517  0.00  0.00    +0.000 A 
ATOM      8  C   UNL     1     -56.937 -42.283 -73.719  0.00  0.00    +0.000 A 
ATOM      9 CL   UNL     1     -55.958 -42.010 -72.323  0.00  0.00    +0.000 Cl
ATOM     10  C   UNL     1     -56.423 -42.419 -75.018  0.00  0.00    +0.000 A 
ATOM     11  C   UNL     1     -54.980 -42.479 -75.319  0.00  0.00    +0.000 A 
ATOM     12  O   UNL     1     -54.174 -42.943 -74.522  0.00  0.00    +0.000 OA
ATOM     13  C   UNL     1     -54.524 -42.024 -76.674  0.00  0.00    +0.000 A 
ATOM     14  H   UNL     1     -57.331 -42.554 -78.192  0.00  0.00    +0.000 HD
ENDROOT
BRANCH   1  15
ATOM     15  S   UNL     1     -55.143 -41.824 -79.404  0.00  0.00    +0.000 S 
ATOM     16  O   UNL     1     -54.844 -40.352 -79.323  0.00  0.00    +0.000 OA
BRANCH  15  17
ATOM     17  C   UNL     1     -56.709 -42.012 -80.306  0.00  0.00    +0.000 C 
BRANCH  17  21
ATOM     18  C   UNL     1     -56.517 -39.798 -84.919  0.00  0.00    +0.000 C 
ATOM     19  C   UNL     1     -56.752 -40.527 -83.659  0.00  0.00    +0.000 A 
ATOM     20  C   UNL     1     -56.047 -40.690 -82.490  0.00  0.00    +0.000 A 
ATOM     21  C   UNL     1     -56.907 -41.442 -81.659  0.00  0.00    +0.000 A 
ATOM     22  N   UNL     1     -58.031 -41.771 -82.318  0.00  0.00    +0.000 NA
ATOM     23  O   UNL     1     -57.930 -41.195 -83.568  0.00  0.00    +0.000 OA
ENDBRANCH  17  21
ENDBRANCH  15  17
ENDBRANCH   1  15
BRANCH  13  24
ATOM     24  C   UNL     1     -53.302 -41.172 -76.640  0.00  0.00    +0.000 C 
ATOM     25  O   UNL     1     -53.392 -39.964 -76.504  0.00  0.00    +0.000 OA
BRANCH  24  26
ATOM     26  C   UNL     1     -51.980 -41.820 -76.727  0.00  0.00    +0.000 C 
ATOM     27  C   UNL     1     -50.740 -41.018 -76.427  0.00  0.00    +0.000 C 
ATOM     28  C   UNL     1     -51.008 -41.472 -77.830  0.00  0.00    +0.000 C 
ENDBRANCH  24  26
ENDBRANCH  13  24
TORSDOF 5
