REMARK VINA RESULT:    -5.108     11.490     14.104
REMARK INTER + INTRA:          -7.510
REMARK INTER:                  -6.669
REMARK INTRA:                  -0.841
REMARK UNBOUND:                -0.910
REMARK  Name = 
REMARK  6 active torsions:
REMARK  status: ('A' for Active; 'I' for Inactive)
REMARK    1  A    between atoms: C_1  and  C_2
REMARK    2  A    between atoms: C_4  and  C_5
REMARK    3  A    between atoms: C_5  and  S_6
REMARK    4  A    between atoms: S_6  and  C_8
REMARK    5  A    between atoms: C_20  and  C_21
REMARK    6  A    between atoms: C_21  and  C_23
REMARK                            x       y       z     vdW  Elec       q    Type
REMARK                         _______ _______ _______ _____ _____    ______ ____
ROOT
ATOM      1  C   UNL     1     -57.245 -40.113 -61.881  0.00  0.00    +0.000 A 
ATOM      2  N   UNL     1     -57.403 -38.874 -61.230  0.00  0.00    +0.000 N 
ATOM      3  C   UNL     1     -57.065 -37.661 -61.890  0.00  0.00    +0.000 A 
ATOM      4  C   UNL     1     -57.545 -36.403 -61.480  0.00  0.00    +0.000 A 
ATOM      5 BR   UNL     1     -58.841 -36.252 -60.103  0.00  0.00    +0.000 Br
ATOM      6  C   UNL     1     -57.099 -35.223 -62.090  0.00  0.00    +0.000 A 
ATOM      7  C   UNL     1     -56.181 -35.292 -63.144  0.00  0.00    +0.000 A 
ATOM      8  C   UNL     1     -55.693 -36.527 -63.570  0.00  0.00    +0.000 A 
ATOM      9 CL   UNL     1     -54.621 -36.510 -64.924  0.00  0.00    +0.000 Cl
ATOM     10  C   UNL     1     -56.119 -37.699 -62.927  0.00  0.00    +0.000 A 
ATOM     11  C   UNL     1     -55.594 -39.040 -63.250  0.00  0.00    +0.000 A 
ATOM     12  O   UNL     1     -54.452 -39.204 -63.658  0.00  0.00    +0.000 OA
ATOM     13  C   UNL     1     -56.479 -40.223 -62.988  0.00  0.00    +0.000 A 
ATOM     14  H   UNL     1     -58.282 -38.824 -60.696  0.00  0.00    +0.000 HD
ENDROOT
BRANCH   1  15
ATOM     15  S   UNL     1     -58.479 -41.335 -61.362  0.00  0.00    +0.000 S 
ATOM     16  O   UNL     1     -57.847 -42.660 -61.690  0.00  0.00    +0.000 OA
BRANCH  15  17
ATOM     17  C   UNL     1     -59.965 -41.171 -62.395  0.00  0.00    +0.000 C 
BRANCH  17  21
ATOM     18  C   UNL     1     -63.024 -37.371 -60.838  0.00  0.00    +0.000 C 
ATOM     19  C   UNL     1     -62.297 -38.512 -61.425  0.00  0.00    +0.000 A 
ATOM     20  C   UNL     1     -61.041 -39.047 -61.262  0.00  0.00    +0.000 A 
ATOM     21  C   UNL     1     -61.039 -40.203 -62.073  0.00  0.00    +0.000 A 
ATOM     22  N   UNL     1     -62.202 -40.314 -62.739  0.00  0.00    +0.000 NA
ATOM     23  O   UNL     1     -62.985 -39.256 -62.329  0.00  0.00    +0.000 OA
ENDBRANCH  17  21
ENDBRANCH  15  17
ENDBRANCH   1  15
BRANCH  13  24
ATOM     24  C   UNL     1     -56.477 -41.228 -64.090  0.00  0.00    +0.000 C 
ATOM     25  O   UNL     1     -55.663 -42.135 -64.100  0.00  0.00    +0.000 OA
BRANCH  24  26
ATOM     26  C   UNL     1     -57.508 -41.132 -65.141  0.00  0.00    +0.000 C 
ATOM     27  C   UNL     1     -57.761 -42.315 -66.039  0.00  0.00    +0.000 C 
ATOM     28  C   UNL     1     -57.132 -41.078 -66.603  0.00  0.00    +0.000 C 
ENDBRANCH  24  26
ENDBRANCH  13  24
TORSDOF 5
