REMARK VINA RESULT:    -5.559     12.620     15.515
REMARK INTER + INTRA:          -7.715
REMARK INTER:                  -6.959
REMARK INTRA:                  -0.756
REMARK UNBOUND:                -0.856
REMARK  Name = 
REMARK  6 active torsions:
REMARK  status: ('A' for Active; 'I' for Inactive)
REMARK    1  A    between atoms: C_1  and  C_2
REMARK    2  A    between atoms: C_2  and  C_4
REMARK    3  A    between atoms: C_5  and  S_6
REMARK    4  A    between atoms: S_6  and  C_8
REMARK    5  A    between atoms: C_8  and  C_9
REMARK    6  A    between atoms: C_11  and  C_12
REMARK                            x       y       z     vdW  Elec       q    Type
REMARK                         _______ _______ _______ _____ _____    ______ ____
ROOT
ATOM      1  C   UNL     1     -67.371 -48.050 -56.854  0.00  0.00    +0.000 A 
ATOM      2  C   UNL     1     -66.304 -47.636 -56.135  0.00  0.00    +0.000 A 
ATOM      3  N   UNL     1     -65.744 -48.393 -55.125  0.00  0.00    +0.000 N 
ATOM      4  C   UNL     1     -66.293 -49.607 -54.683  0.00  0.00    +0.000 A 
ATOM      5  C   UNL     1     -65.667 -50.359 -53.675  0.00  0.00    +0.000 A 
ATOM      6 BR   UNL     1     -64.092 -49.725 -52.821  0.00  0.00    +0.000 Br
ATOM      7  C   UNL     1     -66.178 -51.596 -53.276  0.00  0.00    +0.000 A 
ATOM      8  C   UNL     1     -67.326 -52.094 -53.880  0.00  0.00    +0.000 A 
ATOM      9  C   UNL     1     -67.964 -51.372 -54.892  0.00  0.00    +0.000 A 
ATOM     10 CL   UNL     1     -69.398 -52.106 -55.523  0.00  0.00    +0.000 Cl
ATOM     11  C   UNL     1     -67.428 -50.139 -55.317  0.00  0.00    +0.000 A 
ATOM     12  C   UNL     1     -67.994 -49.359 -56.442  0.00  0.00    +0.000 A 
ATOM     13  O   UNL     1     -68.978 -49.780 -57.035  0.00  0.00    +0.000 OA
ATOM     14  H   UNL     1     -65.091 -47.929 -54.497  0.00  0.00    +0.000 HD
ENDROOT
BRANCH   1  16
ATOM     15  C   UNL     1     -69.095 -46.346 -57.790  0.00  0.00    +0.000 C 
ATOM     16  C   UNL     1     -67.966 -47.319 -58.028  0.00  0.00    +0.000 C 
ATOM     17  O   UNL     1     -67.577 -47.523 -59.171  0.00  0.00    +0.000 OA
ENDBRANCH   1  16
BRANCH   2  18
ATOM     18  S   UNL     1     -65.587 -45.965 -56.374  0.00  0.00    +0.000 S 
ATOM     19  O   UNL     1     -65.718 -45.319 -55.021  0.00  0.00    +0.000 OA
BRANCH  18  20
ATOM     20  C   UNL     1     -63.820 -46.403 -56.550  0.00  0.00    +0.000 C 
BRANCH  20  21
ATOM     21  C   UNL     1     -63.395 -46.467 -57.981  0.00  0.00    +0.000 A 
ATOM     22  C   UNL     1     -62.087 -46.400 -58.527  0.00  0.00    +0.000 A 
ATOM     23  C   UNL     1     -62.263 -46.585 -59.879  0.00  0.00    +0.000 A 
ATOM     24  C   UNL     1     -61.360 -46.636 -61.046  0.00  0.00    +0.000 C 
ATOM     25  O   UNL     1     -63.589 -46.757 -60.131  0.00  0.00    +0.000 OA
ATOM     26  N   UNL     1     -64.299 -46.694 -58.942  0.00  0.00    +0.000 NA
ENDBRANCH  20  21
ENDBRANCH  18  20
ENDBRANCH   2  18
TORSDOF 4
