REMARK VINA RESULT:    -6.465     13.481     15.777
REMARK INTER + INTRA:          -9.212
REMARK INTER:                  -8.510
REMARK INTRA:                  -0.702
REMARK UNBOUND:                -1.235
REMARK  Name = 
REMARK  5 active torsions:
REMARK  status: ('A' for Active; 'I' for Inactive)
REMARK    1  A    between atoms: C_1  and  C_2
REMARK    2  A    between atoms: C_2  and  C_4
REMARK    3  A    between atoms: C_5  and  S_6
REMARK    4  A    between atoms: S_6  and  C_8
REMARK    5  A    between atoms: C_8  and  C_9
REMARK                            x       y       z     vdW  Elec       q    Type
REMARK                         _______ _______ _______ _____ _____    ______ ____
ROOT
ATOM      1  C   UNL     1     -55.136 -41.262 -80.339  0.00  0.00    +0.000 A 
ATOM      2  C   UNL     1     -54.665 -41.085 -79.082  0.00  0.00    +0.000 A 
ATOM      3  N   UNL     1     -55.284 -41.607 -77.960  0.00  0.00    +0.000 N 
ATOM      4  C   UNL     1     -56.524 -42.264 -78.004  0.00  0.00    +0.000 A 
ATOM      5  C   UNL     1     -57.115 -42.769 -76.832  0.00  0.00    +0.000 A 
ATOM      6 BR   UNL     1     -56.296 -42.513 -75.137  0.00  0.00    +0.000 Br
ATOM      7  C   UNL     1     -58.316 -43.472 -76.877  0.00  0.00    +0.000 A 
ATOM      8  C   UNL     1     -58.941 -43.685 -78.103  0.00  0.00    +0.000 A 
ATOM      9  C   UNL     1     -58.362 -43.213 -79.287  0.00  0.00    +0.000 A 
ATOM     10 CL   UNL     1     -59.260 -43.548 -80.727  0.00  0.00    +0.000 Cl
ATOM     11  C   UNL     1     -57.135 -42.518 -79.245  0.00  0.00    +0.000 A 
ATOM     12  C   UNL     1     -56.446 -41.998 -80.459  0.00  0.00    +0.000 A 
ATOM     13  O   UNL     1     -56.964 -42.136 -81.560  0.00  0.00    +0.000 OA
ATOM     14  H   UNL     1     -55.070 -41.128 -77.083  0.00  0.00    +0.000 HD
ENDROOT
BRANCH   1  16
ATOM     15  C   UNL     1     -53.366 -41.570 -82.223  0.00  0.00    +0.000 C 
ATOM     16  C   UNL     1     -54.462 -40.749 -81.583  0.00  0.00    +0.000 C 
ATOM     17  O   UNL     1     -54.759 -39.663 -82.080  0.00  0.00    +0.000 OA
ENDBRANCH   1  16
BRANCH   2  18
ATOM     18  S   UNL     1     -53.253 -39.987 -78.731  0.00  0.00    +0.000 S 
ATOM     19  O   UNL     1     -53.816 -38.614 -78.992  0.00  0.00    +0.000 OA
BRANCH  18  20
ATOM     20  C   UNL     1     -53.188 -40.168 -76.906  0.00  0.00    +0.000 C 
BRANCH  20  21
ATOM     21  C   UNL     1     -51.830 -39.839 -76.325  0.00  0.00    +0.000 A 
ATOM     22  C   UNL     1     -50.935 -40.855 -75.947  0.00  0.00    +0.000 A 
ATOM     23  C   UNL     1     -49.676 -40.543 -75.425  0.00  0.00    +0.000 A 
ATOM     24  C   UNL     1     -49.289 -39.214 -75.282  0.00  0.00    +0.000 A 
ATOM     25  C   UNL     1     -50.158 -38.196 -75.667  0.00  0.00    +0.000 A 
ATOM     26  C   UNL     1     -51.419 -38.505 -76.186  0.00  0.00    +0.000 A 
ENDBRANCH  20  21
ENDBRANCH  18  20
ENDBRANCH   2  18
TORSDOF 4
