REMARK VINA RESULT:    -6.580     11.185     13.182
REMARK INTER + INTRA:          -8.642
REMARK INTER:                  -7.788
REMARK INTRA:                  -0.854
REMARK UNBOUND:                -0.524
REMARK  Name = 
REMARK  6 active torsions:
REMARK  status: ('A' for Active; 'I' for Inactive)
REMARK    1  A    between atoms: C_1  and  C_2
REMARK    2  A    between atoms: C_2  and  C_4
REMARK    3  A    between atoms: C_5  and  S_6
REMARK    4  A    between atoms: S_6  and  C_8
REMARK    5  A    between atoms: C_8  and  C_9
REMARK    6  A    between atoms: C_11  and  C_12
REMARK                            x       y       z     vdW  Elec       q    Type
REMARK                         _______ _______ _______ _____ _____    ______ ____
ROOT
ATOM      1  C   UNL     1     -54.286 -42.317 -77.149  0.00  0.00    +0.000 A 
ATOM      2  C   UNL     1     -55.406 -42.702 -77.800  0.00  0.00    +0.000 A 
ATOM      3  N   UNL     1     -55.979 -43.953 -77.660  0.00  0.00    +0.000 N 
ATOM      4  C   UNL     1     -55.379 -44.986 -76.926  0.00  0.00    +0.000 A 
ATOM      5  C   UNL     1     -55.983 -46.255 -76.844  0.00  0.00    +0.000 A 
ATOM      6 BR   UNL     1     -57.588 -46.637 -77.787  0.00  0.00    +0.000 Br
ATOM      7  C   UNL     1     -55.424 -47.269 -76.073  0.00  0.00    +0.000 A 
ATOM      8  C   UNL     1     -54.250 -47.023 -75.362  0.00  0.00    +0.000 A 
ATOM      9  C   UNL     1     -53.642 -45.763 -75.411  0.00  0.00    +0.000 A 
ATOM     10 CL   UNL     1     -52.194 -45.612 -74.476  0.00  0.00    +0.000 Cl
ATOM     11  C   UNL     1     -54.213 -44.732 -76.183  0.00  0.00    +0.000 A 
ATOM     12  C   UNL     1     -53.624 -43.367 -76.295  0.00  0.00    +0.000 A 
ATOM     13  O   UNL     1     -52.570 -43.110 -75.725  0.00  0.00    +0.000 OA
ATOM     14  H   UNL     1     -56.574 -44.250 -78.435  0.00  0.00    +0.000 HD
ENDROOT
BRANCH   1  16
ATOM     15  C   UNL     1     -52.352 -40.801 -78.018  0.00  0.00    +0.000 C 
ATOM     16  C   UNL     1     -53.656 -40.950 -77.263  0.00  0.00    +0.000 C 
ATOM     17  O   UNL     1     -54.168 -39.957 -76.747  0.00  0.00    +0.000 OA
ENDBRANCH   1  16
BRANCH   2  18
ATOM     18  S   UNL     1     -56.173 -41.646 -79.072  0.00  0.00    +0.000 S 
ATOM     19  O   UNL     1     -56.208 -42.530 -80.289  0.00  0.00    +0.000 OA
BRANCH  18  20
ATOM     20  C   UNL     1     -57.886 -41.600 -78.433  0.00  0.00    +0.000 C 
BRANCH  20  21
ATOM     21  C   UNL     1     -57.942 -41.440 -76.949  0.00  0.00    +0.000 A 
ATOM     22  C   UNL     1     -57.593 -40.333 -76.134  0.00  0.00    +0.000 A 
ATOM     23  C   UNL     1     -57.874 -40.741 -74.852  0.00  0.00    +0.000 A 
ATOM     24  C   UNL     1     -57.728 -40.136 -73.516  0.00  0.00    +0.000 C 
ATOM     25  O   UNL     1     -58.393 -41.996 -74.892  0.00  0.00    +0.000 OA
ATOM     26  N   UNL     1     -58.443 -42.436 -76.202  0.00  0.00    +0.000 NA
ENDBRANCH  20  21
ENDBRANCH  18  20
ENDBRANCH   2  18
TORSDOF 4
