REMARK VINA RESULT:    -5.725     17.228     19.127
REMARK INTER + INTRA:          -8.081
REMARK INTER:                  -7.155
REMARK INTRA:                  -0.926
REMARK UNBOUND:                -0.684
REMARK  Name = 
REMARK  8 active torsions:
REMARK  status: ('A' for Active; 'I' for Inactive)
REMARK    1  A    between atoms: C_1  and  C_2
REMARK    2  A    between atoms: C_4  and  C_5
REMARK    3  A    between atoms: C_5  and  S_6
REMARK    4  A    between atoms: S_6  and  C_8
REMARK    5  A    between atoms: C_20  and  C_21
REMARK    6  A    between atoms: C_21  and  C_23
REMARK    7  A    between atoms: C_23  and  C_24
REMARK    8  A    between atoms: C_23  and  C_25
REMARK                            x       y       z     vdW  Elec       q    Type
REMARK                         _______ _______ _______ _____ _____    ______ ____
ROOT
ATOM      1  C   UNL     1     -48.141 -25.606 -62.253  0.00  0.00    +0.000 A 
ATOM      2  N   UNL     1     -47.883 -25.432 -63.609  0.00  0.00    +0.000 N 
ATOM      3  C   UNL     1     -48.469 -24.383 -64.344  0.00  0.00    +0.000 A 
ATOM      4  C   UNL     1     -47.931 -23.930 -65.563  0.00  0.00    +0.000 A 
ATOM      5 BR   UNL     1     -46.279 -24.603 -66.210  0.00  0.00    +0.000 Br
ATOM      6  C   UNL     1     -48.576 -22.941 -66.311  0.00  0.00    +0.000 A 
ATOM      7  C   UNL     1     -49.766 -22.387 -65.849  0.00  0.00    +0.000 A 
ATOM      8  C   UNL     1     -50.317 -22.820 -64.629  0.00  0.00    +0.000 A 
ATOM      9 CL   UNL     1     -51.756 -22.009 -64.125  0.00  0.00    +0.000 Cl
ATOM     10  C   UNL     1     -49.670 -23.823 -63.878  0.00  0.00    +0.000 A 
ATOM     11  C   UNL     1     -50.186 -24.371 -62.598  0.00  0.00    +0.000 A 
ATOM     12  O   UNL     1     -51.384 -24.304 -62.339  0.00  0.00    +0.000 OA
ATOM     13  C   UNL     1     -49.201 -25.031 -61.637  0.00  0.00    +0.000 A 
ATOM     14  H   UNL     1     -46.931 -25.704 -63.891  0.00  0.00    +0.000 HD
ENDROOT
BRANCH   1  15
ATOM     15  S   UNL     1     -46.775 -26.498 -61.418  0.00  0.00    +0.000 S 
ATOM     16  O   UNL     1     -45.740 -26.661 -62.498  0.00  0.00    +0.000 OA
BRANCH  15  17
ATOM     17  C   UNL     1     -47.500 -28.134 -61.060  0.00  0.00    +0.000 C 
BRANCH  17  21
ATOM     18  C   UNL     1     -45.361 -32.173 -63.491  0.00  0.00    +0.000 C 
ATOM     19  C   UNL     1     -45.817 -31.036 -62.661  0.00  0.00    +0.000 A 
ATOM     20  C   UNL     1     -46.801 -30.081 -62.773  0.00  0.00    +0.000 A 
ATOM     21  C   UNL     1     -46.700 -29.303 -61.583  0.00  0.00    +0.000 A 
ATOM     22  N   UNL     1     -45.693 -29.766 -60.822  0.00  0.00    +0.000 NA
ATOM     23  O   UNL     1     -45.150 -30.844 -61.494  0.00  0.00    +0.000 OA
ENDBRANCH  17  21
ENDBRANCH  15  17
ENDBRANCH   1  15
BRANCH  13  24
ATOM     24  C   UNL     1     -49.514 -24.921 -60.161  0.00  0.00    +0.000 C 
ATOM     25  O   UNL     1     -49.797 -25.927 -59.512  0.00  0.00    +0.000 OA
BRANCH  24  26
ATOM     26  C   UNL     1     -49.547 -23.553 -59.478  0.00  0.00    +0.000 C 
ATOM     27  C   UNL     1     -49.938 -23.664 -58.007  0.00  0.00    +0.000 C 
ATOM     28  C   UNL     1     -48.215 -22.811 -59.619  0.00  0.00    +0.000 C 
ENDBRANCH  24  26
ENDBRANCH  13  24
TORSDOF 5
