REMARK VINA RESULT:    -6.507      2.401      4.310
REMARK INTER + INTRA:          -9.282
REMARK INTER:                  -8.148
REMARK INTRA:                  -1.134
REMARK UNBOUND:                -0.873
REMARK  Name = 
REMARK  6 active torsions:
REMARK  status: ('A' for Active; 'I' for Inactive)
REMARK    1  A    between atoms: C_1  and  C_2
REMARK    2  A    between atoms: C_4  and  C_5
REMARK    3  A    between atoms: C_5  and  S_6
REMARK    4  A    between atoms: S_6  and  C_8
REMARK    5  A    between atoms: C_20  and  C_21
REMARK    6  A    between atoms: C_21  and  C_23
REMARK                            x       y       z     vdW  Elec       q    Type
REMARK                         _______ _______ _______ _____ _____    ______ ____
ROOT
ATOM      1  C   UNL     1     -56.306 -41.910 -77.663  0.00  0.00    +0.000 A 
ATOM      2  N   UNL     1     -55.419 -40.831 -77.485  0.00  0.00    +0.000 N 
ATOM      3  C   UNL     1     -54.101 -41.050 -76.999  0.00  0.00    +0.000 A 
ATOM      4  C   UNL     1     -53.058 -40.120 -77.161  0.00  0.00    +0.000 A 
ATOM      5 BR   UNL     1     -53.293 -38.558 -78.211  0.00  0.00    +0.000 Br
ATOM      6  C   UNL     1     -51.803 -40.327 -76.571  0.00  0.00    +0.000 A 
ATOM      7  C   UNL     1     -51.570 -41.491 -75.830  0.00  0.00    +0.000 A 
ATOM      8  C   UNL     1     -52.588 -42.429 -75.657  0.00  0.00    +0.000 A 
ATOM      9 CL   UNL     1     -52.178 -43.864 -74.788  0.00  0.00    +0.000 Cl
ATOM     10  C   UNL     1     -53.850 -42.193 -76.223  0.00  0.00    +0.000 A 
ATOM     11  C   UNL     1     -55.009 -43.084 -76.023  0.00  0.00    +0.000 A 
ATOM     12  O   UNL     1     -55.149 -43.740 -74.999  0.00  0.00    +0.000 OA
ATOM     13  C   UNL     1     -56.069 -43.108 -77.085  0.00  0.00    +0.000 A 
ATOM     14  H   UNL     1     -55.468 -40.155 -78.260  0.00  0.00    +0.000 HD
ENDROOT
BRANCH   1  15
ATOM     15  S   UNL     1     -57.456 -41.646 -79.039  0.00  0.00    +0.000 S 
ATOM     16  O   UNL     1     -58.554 -42.647 -78.799  0.00  0.00    +0.000 OA
BRANCH  15  17
ATOM     17  C   UNL     1     -56.644 -42.094 -80.602  0.00  0.00    +0.000 C 
BRANCH  17  21
ATOM     18  C   UNL     1     -51.569 -42.572 -81.081  0.00  0.00    +0.000 C 
ATOM     19  C   UNL     1     -53.007 -42.245 -81.039  0.00  0.00    +0.000 A 
ATOM     20  C   UNL     1     -54.140 -42.918 -80.649  0.00  0.00    +0.000 A 
ATOM     21  C   UNL     1     -55.180 -41.972 -80.786  0.00  0.00    +0.000 A 
ATOM     22  N   UNL     1     -54.707 -40.822 -81.297  0.00  0.00    +0.000 NA
ATOM     23  O   UNL     1     -53.347 -40.998 -81.451  0.00  0.00    +0.000 OA
ENDBRANCH  17  21
ENDBRANCH  15  17
ENDBRANCH   1  15
BRANCH  13  24
ATOM     24  C   UNL     1     -56.544 -44.479 -77.426  0.00  0.00    +0.000 C 
ATOM     25  O   UNL     1     -57.623 -44.879 -77.026  0.00  0.00    +0.000 OA
BRANCH  24  26
ATOM     26  C   UNL     1     -55.706 -45.325 -78.297  0.00  0.00    +0.000 C 
ATOM     27  C   UNL     1     -56.049 -46.783 -78.467  0.00  0.00    +0.000 C 
ATOM     28  C   UNL     1     -54.809 -46.395 -77.721  0.00  0.00    +0.000 C 
ENDBRANCH  24  26
ENDBRANCH  13  24
TORSDOF 5
