REMARK VINA RESULT:    -5.842      4.361      5.712
REMARK INTER + INTRA:          -7.732
REMARK INTER:                  -6.958
REMARK INTRA:                  -0.775
REMARK UNBOUND:                -0.524
REMARK  Name = 
REMARK  6 active torsions:
REMARK  status: ('A' for Active; 'I' for Inactive)
REMARK    1  A    between atoms: C_1  and  C_2
REMARK    2  A    between atoms: C_2  and  C_4
REMARK    3  A    between atoms: C_5  and  S_6
REMARK    4  A    between atoms: S_6  and  C_8
REMARK    5  A    between atoms: C_8  and  C_9
REMARK    6  A    between atoms: C_11  and  C_12
REMARK                            x       y       z     vdW  Elec       q    Type
REMARK                         _______ _______ _______ _____ _____    ______ ____
ROOT
ATOM      1  C   UNL     1     -56.549 -41.624 -63.200  0.00  0.00    +0.000 A 
ATOM      2  C   UNL     1     -57.387 -40.699 -62.681  0.00  0.00    +0.000 A 
ATOM      3  N   UNL     1     -57.162 -39.336 -62.760  0.00  0.00    +0.000 N 
ATOM      4  C   UNL     1     -55.978 -38.790 -63.273  0.00  0.00    +0.000 A 
ATOM      5  C   UNL     1     -55.780 -37.396 -63.297  0.00  0.00    +0.000 A 
ATOM      6 BR   UNL     1     -57.072 -36.212 -62.563  0.00  0.00    +0.000 Br
ATOM      7  C   UNL     1     -54.632 -36.842 -63.855  0.00  0.00    +0.000 A 
ATOM      8  C   UNL     1     -53.665 -37.680 -64.408  0.00  0.00    +0.000 A 
ATOM      9  C   UNL     1     -53.849 -39.067 -64.416  0.00  0.00    +0.000 A 
ATOM     10 CL   UNL     1     -52.563 -39.972 -65.138  0.00  0.00    +0.000 Cl
ATOM     11  C   UNL     1     -55.015 -39.630 -63.860  0.00  0.00    +0.000 A 
ATOM     12  C   UNL     1     -55.282 -41.095 -63.821  0.00  0.00    +0.000 A 
ATOM     13  O   UNL     1     -54.447 -41.879 -64.254  0.00  0.00    +0.000 OA
ATOM     14  H   UNL     1     -57.637 -38.774 -62.052  0.00  0.00    +0.000 HD
ENDROOT
BRANCH   1  16
ATOM     15  C   UNL     1     -57.604 -43.766 -64.246  0.00  0.00    +0.000 C 
ATOM     16  C   UNL     1     -56.785 -43.115 -63.152  0.00  0.00    +0.000 C 
ATOM     17  O   UNL     1     -56.340 -43.811 -62.240  0.00  0.00    +0.000 OA
ENDBRANCH   1  16
BRANCH   2  18
ATOM     18  S   UNL     1     -58.821 -41.182 -61.666  0.00  0.00    +0.000 S 
ATOM     19  O   UNL     1     -58.793 -40.200 -60.526  0.00  0.00    +0.000 OA
BRANCH  18  20
ATOM     20  C   UNL     1     -60.171 -40.631 -62.771  0.00  0.00    +0.000 C 
BRANCH  20  21
ATOM     21  C   UNL     1     -61.074 -39.633 -62.123  0.00  0.00    +0.000 A 
ATOM     22  C   UNL     1     -61.034 -38.215 -62.141  0.00  0.00    +0.000 A 
ATOM     23  C   UNL     1     -62.122 -37.826 -61.398  0.00  0.00    +0.000 A 
ATOM     24  C   UNL     1     -62.673 -36.528 -60.969  0.00  0.00    +0.000 C 
ATOM     25  O   UNL     1     -62.796 -38.932 -60.989  0.00  0.00    +0.000 OA
ATOM     26  N   UNL     1     -62.148 -40.066 -61.445  0.00  0.00    +0.000 NA
ENDBRANCH  20  21
ENDBRANCH  18  20
ENDBRANCH   2  18
TORSDOF 4
