REMARK VINA RESULT:    -6.603      3.386      6.112
REMARK INTER + INTRA:          -9.713
REMARK INTER:                  -8.819
REMARK INTRA:                  -0.894
REMARK UNBOUND:                -1.180
REMARK  Name = 
REMARK  6 active torsions:
REMARK  status: ('A' for Active; 'I' for Inactive)
REMARK    1  A    between atoms: C_1  and  C_2
REMARK    2  A    between atoms: C_2  and  C_4
REMARK    3  A    between atoms: C_5  and  S_6
REMARK    4  A    between atoms: S_6  and  C_8
REMARK    5  A    between atoms: C_8  and  C_9
REMARK    6  A    between atoms: C_12  and  C_13
REMARK                            x       y       z     vdW  Elec       q    Type
REMARK                         _______ _______ _______ _____ _____    ______ ____
ROOT
ATOM      1  C   UNL     1     -53.771 -41.401 -78.639  0.00  0.00    +0.000 A 
ATOM      2  C   UNL     1     -54.650 -42.422 -78.621  0.00  0.00    +0.000 A 
ATOM      3  N   UNL     1     -54.644 -43.399 -77.645  0.00  0.00    +0.000 N 
ATOM      4  C   UNL     1     -53.686 -43.481 -76.631  0.00  0.00    +0.000 A 
ATOM      5  C   UNL     1     -53.740 -44.488 -75.649  0.00  0.00    +0.000 A 
ATOM      6 BR   UNL     1     -55.087 -45.825 -75.688  0.00  0.00    +0.000 Br
ATOM      7  C   UNL     1     -52.807 -44.533 -74.613  0.00  0.00    +0.000 A 
ATOM      8  C   UNL     1     -51.802 -43.570 -74.548  0.00  0.00    +0.000 A 
ATOM      9  C   UNL     1     -51.732 -42.554 -75.508  0.00  0.00    +0.000 A 
ATOM     10 CL   UNL     1     -50.430 -41.435 -75.298  0.00  0.00    +0.000 Cl
ATOM     11  C   UNL     1     -52.684 -42.497 -76.543  0.00  0.00    +0.000 A 
ATOM     12  C   UNL     1     -52.690 -41.433 -77.590  0.00  0.00    +0.000 A 
ATOM     13  O   UNL     1     -51.794 -40.599 -77.629  0.00  0.00    +0.000 OA
ATOM     14  H   UNL     1     -55.261 -44.200 -77.818  0.00  0.00    +0.000 HD
ENDROOT
BRANCH   1  16
ATOM     15  C   UNL     1     -54.090 -38.880 -79.129  0.00  0.00    +0.000 C 
ATOM     16  C   UNL     1     -53.792 -40.275 -79.631  0.00  0.00    +0.000 C 
ATOM     17  O   UNL     1     -53.623 -40.473 -80.833  0.00  0.00    +0.000 OA
ENDBRANCH   1  16
BRANCH   2  18
ATOM     18  S   UNL     1     -55.850 -42.737 -79.955  0.00  0.00    +0.000 S 
ATOM     19  O   UNL     1     -56.400 -44.098 -79.612  0.00  0.00    +0.000 OA
BRANCH  18  20
ATOM     20  C   UNL     1     -57.136 -41.501 -79.554  0.00  0.00    +0.000 C 
BRANCH  20  21
ATOM     21  C   UNL     1     -57.470 -41.458 -78.073  0.00  0.00    +0.000 A 
ATOM     22  C   UNL     1     -57.110 -40.356 -77.282  0.00  0.00    +0.000 A 
ATOM     23  C   UNL     1     -57.425 -40.311 -75.920  0.00  0.00    +0.000 A 
ATOM     24  C   UNL     1     -58.126 -41.363 -75.325  0.00  0.00    +0.000 A 
ATOM     25  C   UNL     1     -58.503 -42.461 -76.106  0.00  0.00    +0.000 A 
ATOM     26  C   UNL     1     -58.176 -42.509 -77.466  0.00  0.00    +0.000 A 
BRANCH  24  27
ATOM     27  C   UNL     1     -58.453 -41.319 -73.925  0.00  0.00    +0.000 C 
ATOM     28  N   UNL     1     -58.714 -41.278 -72.796  0.00  0.00    +0.000 NA
ENDBRANCH  24  27
ENDBRANCH  20  21
ENDBRANCH  18  20
ENDBRANCH   2  18
TORSDOF 5
