REMARK VINA RESULT:    -5.254     10.414     13.308
REMARK INTER + INTRA:          -7.660
REMARK INTER:                  -6.502
REMARK INTRA:                  -1.157
REMARK UNBOUND:                -0.869
REMARK  Name = 
REMARK  6 active torsions:
REMARK  status: ('A' for Active; 'I' for Inactive)
REMARK    1  A    between atoms: C_1  and  C_2
REMARK    2  A    between atoms: C_4  and  C_5
REMARK    3  A    between atoms: C_5  and  S_6
REMARK    4  A    between atoms: S_6  and  C_8
REMARK    5  A    between atoms: C_20  and  C_21
REMARK    6  A    between atoms: C_21  and  C_23
REMARK                            x       y       z     vdW  Elec       q    Type
REMARK                         _______ _______ _______ _____ _____    ______ ____
ROOT
ATOM      1  C   UNL     1     -66.229 -41.710 -70.953  0.00  0.00    +0.000 A 
ATOM      2  N   UNL     1     -65.153 -41.871 -71.847  0.00  0.00    +0.000 N 
ATOM      3  C   UNL     1     -63.817 -41.942 -71.366  0.00  0.00    +0.000 A 
ATOM      4  C   UNL     1     -62.757 -42.480 -72.120  0.00  0.00    +0.000 A 
ATOM      5 BR   UNL     1     -63.072 -43.324 -73.789  0.00  0.00    +0.000 Br
ATOM      6  C   UNL     1     -61.436 -42.430 -71.652  0.00  0.00    +0.000 A 
ATOM      7  C   UNL     1     -61.165 -41.862 -70.402  0.00  0.00    +0.000 A 
ATOM      8  C   UNL     1     -62.199 -41.325 -69.636  0.00  0.00    +0.000 A 
ATOM      9 CL   UNL     1     -61.771 -40.713 -68.079  0.00  0.00    +0.000 Cl
ATOM     10  C   UNL     1     -63.512 -41.348 -70.131  0.00  0.00    +0.000 A 
ATOM     11  C   UNL     1     -64.655 -40.729 -69.432  0.00  0.00    +0.000 A 
ATOM     12  O   UNL     1     -64.518 -39.745 -68.717  0.00  0.00    +0.000 OA
ATOM     13  C   UNL     1     -66.022 -41.294 -69.684  0.00  0.00    +0.000 A 
ATOM     14  H   UNL     1     -65.362 -42.552 -72.590  0.00  0.00    +0.000 HD
ENDROOT
BRANCH   1  15
ATOM     15  S   UNL     1     -67.742 -42.522 -71.531  0.00  0.00    +0.000 S 
ATOM     16  O   UNL     1     -67.287 -43.371 -72.687  0.00  0.00    +0.000 OA
BRANCH  15  17
ATOM     17  C   UNL     1     -68.887 -41.275 -72.189  0.00  0.00    +0.000 C 
BRANCH  17  21
ATOM     18  C   UNL     1     -70.238 -37.110 -69.534  0.00  0.00    +0.000 C 
ATOM     19  C   UNL     1     -70.044 -38.382 -70.256  0.00  0.00    +0.000 A 
ATOM     20  C   UNL     1     -69.042 -38.908 -71.036  0.00  0.00    +0.000 A 
ATOM     21  C   UNL     1     -69.474 -40.220 -71.331  0.00  0.00    +0.000 A 
ATOM     22  N   UNL     1     -70.697 -40.441 -70.817  0.00  0.00    +0.000 NA
ATOM     23  O   UNL     1     -71.047 -39.289 -70.144  0.00  0.00    +0.000 OA
ENDBRANCH  17  21
ENDBRANCH  15  17
ENDBRANCH   1  15
BRANCH  13  24
ATOM     24  C   UNL     1     -66.842 -41.450 -68.449  0.00  0.00    +0.000 C 
ATOM     25  O   UNL     1     -67.782 -40.705 -68.231  0.00  0.00    +0.000 OA
BRANCH  24  26
ATOM     26  C   UNL     1     -66.526 -42.552 -67.520  0.00  0.00    +0.000 C 
ATOM     27  C   UNL     1     -65.747 -43.742 -68.019  0.00  0.00    +0.000 C 
ATOM     28  C   UNL     1     -67.191 -43.901 -67.651  0.00  0.00    +0.000 C 
ENDBRANCH  24  26
ENDBRANCH  13  24
TORSDOF 5
