REMARK VINA RESULT:    -6.873      2.511      3.948
REMARK INTER + INTRA:          -9.715
REMARK INTER:                  -8.825
REMARK INTRA:                  -0.890
REMARK UNBOUND:                -1.235
REMARK  Name = 
REMARK  5 active torsions:
REMARK  status: ('A' for Active; 'I' for Inactive)
REMARK    1  A    between atoms: C_1  and  C_2
REMARK    2  A    between atoms: C_2  and  C_4
REMARK    3  A    between atoms: C_5  and  S_6
REMARK    4  A    between atoms: S_6  and  C_8
REMARK    5  A    between atoms: C_8  and  C_9
REMARK                            x       y       z     vdW  Elec       q    Type
REMARK                         _______ _______ _______ _____ _____    ______ ____
ROOT
ATOM      1  C   UNL     1     -56.021 -42.350 -62.739  0.00  0.00    +0.000 A 
ATOM      2  C   UNL     1     -55.683 -41.189 -63.349  0.00  0.00    +0.000 A 
ATOM      3  N   UNL     1     -54.454 -40.977 -63.948  0.00  0.00    +0.000 N 
ATOM      4  C   UNL     1     -53.397 -41.897 -63.875  0.00  0.00    +0.000 A 
ATOM      5  C   UNL     1     -52.163 -41.629 -64.496  0.00  0.00    +0.000 A 
ATOM      6 BR   UNL     1     -51.857 -39.980 -65.389  0.00  0.00    +0.000 Br
ATOM      7  C   UNL     1     -51.130 -42.562 -64.476  0.00  0.00    +0.000 A 
ATOM      8  C   UNL     1     -51.321 -43.784 -63.836  0.00  0.00    +0.000 A 
ATOM      9  C   UNL     1     -52.547 -44.085 -63.232  0.00  0.00    +0.000 A 
ATOM     10 CL   UNL     1     -52.628 -45.637 -62.471  0.00  0.00    +0.000 Cl
ATOM     11  C   UNL     1     -53.601 -43.149 -63.268  0.00  0.00    +0.000 A 
ATOM     12  C   UNL     1     -54.939 -43.398 -62.663  0.00  0.00    +0.000 A 
ATOM     13  O   UNL     1     -55.154 -44.446 -62.066  0.00  0.00    +0.000 OA
ATOM     14  H   UNL     1     -54.180 -39.997 -64.044  0.00  0.00    +0.000 HD
ENDROOT
BRANCH   1  16
ATOM     15  C   UNL     1     -58.467 -43.208 -62.976  0.00  0.00    +0.000 C 
ATOM     16  C   UNL     1     -57.363 -42.630 -62.119  0.00  0.00    +0.000 C 
ATOM     17  O   UNL     1     -57.598 -42.375 -60.938  0.00  0.00    +0.000 OA
ENDBRANCH   1  16
BRANCH   2  18
ATOM     18  S   UNL     1     -56.764 -39.722 -63.286  0.00  0.00    +0.000 S 
ATOM     19  O   UNL     1     -56.603 -39.241 -61.867  0.00  0.00    +0.000 OA
BRANCH  18  20
ATOM     20  C   UNL     1     -55.768 -38.581 -64.323  0.00  0.00    +0.000 C 
BRANCH  20  21
ATOM     21  C   UNL     1     -55.373 -37.313 -63.598  0.00  0.00    +0.000 A 
ATOM     22  C   UNL     1     -54.101 -37.173 -63.017  0.00  0.00    +0.000 A 
ATOM     23  C   UNL     1     -53.739 -35.992 -62.362  0.00  0.00    +0.000 A 
ATOM     24  C   UNL     1     -54.637 -34.931 -62.286  0.00  0.00    +0.000 A 
ATOM     25  C   UNL     1     -55.896 -35.049 -62.871  0.00  0.00    +0.000 A 
ATOM     26  C   UNL     1     -56.262 -36.230 -63.523  0.00  0.00    +0.000 A 
ENDBRANCH  20  21
ENDBRANCH  18  20
ENDBRANCH   2  18
TORSDOF 4
