REMARK VINA RESULT:    -6.589     13.983     15.411
REMARK INTER + INTRA:          -8.933
REMARK INTER:                  -8.318
REMARK INTRA:                  -0.616
REMARK UNBOUND:                -0.804
REMARK  Name = 
REMARK  6 active torsions:
REMARK  status: ('A' for Active; 'I' for Inactive)
REMARK    1  A    between atoms: C_1  and  C_2
REMARK    2  A    between atoms: C_2  and  C_4
REMARK    3  A    between atoms: C_5  and  S_6
REMARK    4  A    between atoms: S_6  and  C_8
REMARK    5  A    between atoms: C_8  and  C_9
REMARK    6  A    between atoms: C_11  and  C_12
REMARK                            x       y       z     vdW  Elec       q    Type
REMARK                         _______ _______ _______ _____ _____    ______ ____
ROOT
ATOM      1  C   UNL     1     -56.372 -42.602 -77.261  0.00  0.00    +0.000 A 
ATOM      2  C   UNL     1     -55.455 -43.245 -76.505  0.00  0.00    +0.000 A 
ATOM      3  N   UNL     1     -55.426 -44.617 -76.359  0.00  0.00    +0.000 N 
ATOM      4  C   UNL     1     -56.384 -45.471 -76.928  0.00  0.00    +0.000 A 
ATOM      5  C   UNL     1     -56.261 -46.867 -76.819  0.00  0.00    +0.000 A 
ATOM      6 BR   UNL     1     -54.832 -47.649 -75.839  0.00  0.00    +0.000 Br
ATOM      7  C   UNL     1     -57.172 -47.719 -77.437  0.00  0.00    +0.000 A 
ATOM      8  C   UNL     1     -58.224 -47.183 -78.175  0.00  0.00    +0.000 A 
ATOM      9  C   UNL     1     -58.358 -45.797 -78.316  0.00  0.00    +0.000 A 
ATOM     10 CL   UNL     1     -59.708 -45.279 -79.265  0.00  0.00    +0.000 Cl
ATOM     11  C   UNL     1     -57.420 -44.935 -77.714  0.00  0.00    +0.000 A 
ATOM     12  C   UNL     1     -57.469 -43.454 -77.844  0.00  0.00    +0.000 A 
ATOM     13  O   UNL     1     -58.422 -42.914 -78.393  0.00  0.00    +0.000 OA
ATOM     14  H   UNL     1     -54.941 -44.973 -75.537  0.00  0.00    +0.000 HD
ENDROOT
BRANCH   1  16
ATOM     15  C   UNL     1     -57.261 -40.241 -76.671  0.00  0.00    +0.000 C 
ATOM     16  C   UNL     1     -56.385 -41.125 -77.529  0.00  0.00    +0.000 C 
ATOM     17  O   UNL     1     -55.731 -40.627 -78.448  0.00  0.00    +0.000 OA
ENDBRANCH   1  16
BRANCH   2  18
ATOM     18  S   UNL     1     -54.242 -42.321 -75.497  0.00  0.00    +0.000 S 
ATOM     19  O   UNL     1     -53.858 -43.303 -74.422  0.00  0.00    +0.000 OA
BRANCH  18  20
ATOM     20  C   UNL     1     -52.844 -42.296 -76.675  0.00  0.00    +0.000 C 
BRANCH  20  21
ATOM     21  C   UNL     1     -51.757 -41.375 -76.234  0.00  0.00    +0.000 A 
ATOM     22  C   UNL     1     -51.649 -39.972 -76.412  0.00  0.00    +0.000 A 
ATOM     23  C   UNL     1     -50.508 -39.624 -75.731  0.00  0.00    +0.000 A 
ATOM     24  C   UNL     1     -49.801 -38.354 -75.480  0.00  0.00    +0.000 C 
ATOM     25  O   UNL     1     -49.960 -40.740 -75.182  0.00  0.00    +0.000 OA
ATOM     26  N   UNL     1     -50.744 -41.839 -75.488  0.00  0.00    +0.000 NA
ENDBRANCH  20  21
ENDBRANCH  18  20
ENDBRANCH   2  18
TORSDOF 4
