REMARK VINA RESULT:    -5.936     11.852     14.444
REMARK INTER + INTRA:          -8.545
REMARK INTER:                  -7.822
REMARK INTRA:                  -0.722
REMARK UNBOUND:                -0.874
REMARK  Name = 
REMARK  8 active torsions:
REMARK  status: ('A' for Active; 'I' for Inactive)
REMARK    1  A    between atoms: C_1  and  C_2
REMARK    2  A    between atoms: C_4  and  C_5
REMARK    3  A    between atoms: C_5  and  S_6
REMARK    4  A    between atoms: S_6  and  C_8
REMARK    5  A    between atoms: C_20  and  C_21
REMARK    6  A    between atoms: C_21  and  C_23
REMARK    7  A    between atoms: C_23  and  C_24
REMARK    8  A    between atoms: C_23  and  C_25
REMARK                            x       y       z     vdW  Elec       q    Type
REMARK                         _______ _______ _______ _____ _____    ______ ____
ROOT
ATOM      1  C   UNL     1     -56.313 -40.727 -61.716  0.00  0.00    +0.000 A 
ATOM      2  N   UNL     1     -55.547 -40.034 -60.784  0.00  0.00    +0.000 N 
ATOM      3  C   UNL     1     -55.431 -38.630 -60.821  0.00  0.00    +0.000 A 
ATOM      4  C   UNL     1     -55.034 -37.882 -59.697  0.00  0.00    +0.000 A 
ATOM      5 BR   UNL     1     -54.786 -38.712 -58.010  0.00  0.00    +0.000 Br
ATOM      6  C   UNL     1     -54.851 -36.498 -59.783  0.00  0.00    +0.000 A 
ATOM      7  C   UNL     1     -55.068 -35.843 -60.991  0.00  0.00    +0.000 A 
ATOM      8  C   UNL     1     -55.473 -36.571 -62.124  0.00  0.00    +0.000 A 
ATOM      9 CL   UNL     1     -55.780 -35.640 -63.545  0.00  0.00    +0.000 Cl
ATOM     10  C   UNL     1     -55.650 -37.968 -62.040  0.00  0.00    +0.000 A 
ATOM     11  C   UNL     1     -56.043 -38.830 -63.184  0.00  0.00    +0.000 A 
ATOM     12  O   UNL     1     -55.822 -38.463 -64.334  0.00  0.00    +0.000 OA
ATOM     13  C   UNL     1     -56.699 -40.176 -62.891  0.00  0.00    +0.000 A 
ATOM     14  H   UNL     1     -55.538 -40.463 -59.849  0.00  0.00    +0.000 HD
ENDROOT
BRANCH   1  15
ATOM     15  S   UNL     1     -56.882 -42.338 -61.052  0.00  0.00    +0.000 S 
ATOM     16  O   UNL     1     -57.844 -41.956 -59.960  0.00  0.00    +0.000 OA
BRANCH  15  17
ATOM     17  C   UNL     1     -55.379 -43.029 -60.283  0.00  0.00    +0.000 C 
BRANCH  17  21
ATOM     18  C   UNL     1     -52.305 -46.382 -62.756  0.00  0.00    +0.000 C 
ATOM     19  C   UNL     1     -53.199 -45.326 -62.232  0.00  0.00    +0.000 A 
ATOM     20  C   UNL     1     -53.849 -45.103 -61.039  0.00  0.00    +0.000 A 
ATOM     21  C   UNL     1     -54.525 -43.861 -61.211  0.00  0.00    +0.000 A 
ATOM     22  N   UNL     1     -54.301 -43.389 -62.450  0.00  0.00    +0.000 NA
ATOM     23  O   UNL     1     -53.474 -44.301 -63.078  0.00  0.00    +0.000 OA
ENDBRANCH  17  21
ENDBRANCH  15  17
ENDBRANCH   1  15
BRANCH  13  24
ATOM     24  C   UNL     1     -57.699 -40.680 -63.908  0.00  0.00    +0.000 C 
ATOM     25  O   UNL     1     -58.886 -40.794 -63.606  0.00  0.00    +0.000 OA
BRANCH  24  26
ATOM     26  C   UNL     1     -57.233 -41.115 -65.299  0.00  0.00    +0.000 C 
ATOM     27  C   UNL     1     -55.950 -41.939 -65.234  0.00  0.00    +0.000 C 
ATOM     28  C   UNL     1     -58.322 -41.885 -66.052  0.00  0.00    +0.000 C 
ENDBRANCH  24  26
ENDBRANCH  13  24
TORSDOF 5
