REMARK VINA RESULT:    -6.661      4.064      6.285
REMARK INTER + INTRA:          -9.550
REMARK INTER:                  -8.406
REMARK INTRA:                  -1.144
REMARK UNBOUND:                -0.943
REMARK  Name = 
REMARK  6 active torsions:
REMARK  status: ('A' for Active; 'I' for Inactive)
REMARK    1  A    between atoms: C_1  and  C_2
REMARK    2  A    between atoms: C_4  and  C_5
REMARK    3  A    between atoms: C_5  and  S_6
REMARK    4  A    between atoms: S_6  and  C_8
REMARK    5  A    between atoms: C_20  and  C_21
REMARK    6  A    between atoms: C_21  and  C_23
REMARK                            x       y       z     vdW  Elec       q    Type
REMARK                         _______ _______ _______ _____ _____    ______ ____
ROOT
ATOM      1  C   UNL     1     -54.820 -43.385 -78.153  0.00  0.00    +0.000 A 
ATOM      2  N   UNL     1     -55.021 -44.431 -79.074  0.00  0.00    +0.000 N 
ATOM      3  C   UNL     1     -55.414 -45.723 -78.629  0.00  0.00    +0.000 A 
ATOM      4  C   UNL     1     -56.001 -46.682 -79.476  0.00  0.00    +0.000 A 
ATOM      5 BR   UNL     1     -56.480 -46.250 -81.260  0.00  0.00    +0.000 Br
ATOM      6  C   UNL     1     -56.272 -47.980 -79.023  0.00  0.00    +0.000 A 
ATOM      7  C   UNL     1     -55.982 -48.326 -77.698  0.00  0.00    +0.000 A 
ATOM      8  C   UNL     1     -55.403 -47.392 -76.839  0.00  0.00    +0.000 A 
ATOM      9 CL   UNL     1     -55.151 -47.894 -75.206  0.00  0.00    +0.000 Cl
ATOM     10  C   UNL     1     -55.103 -46.106 -77.315  0.00  0.00    +0.000 A 
ATOM     11  C   UNL     1     -54.413 -45.082 -76.508  0.00  0.00    +0.000 A 
ATOM     12  O   UNL     1     -53.605 -45.382 -75.638  0.00  0.00    +0.000 OA
ATOM     13  C   UNL     1     -54.668 -43.640 -76.834  0.00  0.00    +0.000 A 
ATOM     14  H   UNL     1     -55.517 -44.115 -79.919  0.00  0.00    +0.000 HD
ENDROOT
BRANCH   1  15
ATOM     15  S   UNL     1     -55.234 -41.761 -78.841  0.00  0.00    +0.000 S 
ATOM     16  O   UNL     1     -55.742 -42.065 -80.224  0.00  0.00    +0.000 OA
BRANCH  15  17
ATOM     17  C   UNL     1     -53.718 -40.775 -79.024  0.00  0.00    +0.000 C 
BRANCH  17  21
ATOM     18  C   UNL     1     -49.943 -40.923 -75.567  0.00  0.00    +0.000 C 
ATOM     19  C   UNL     1     -51.071 -40.685 -76.487  0.00  0.00    +0.000 A 
ATOM     20  C   UNL     1     -51.622 -41.376 -77.540  0.00  0.00    +0.000 A 
ATOM     21  C   UNL     1     -52.751 -40.614 -77.913  0.00  0.00    +0.000 A 
ATOM     22  N   UNL     1     -52.830 -39.495 -77.172  0.00  0.00    +0.000 NA
ATOM     23  O   UNL     1     -51.779 -39.546 -76.281  0.00  0.00    +0.000 OA
ENDBRANCH  17  21
ENDBRANCH  15  17
ENDBRANCH   1  15
BRANCH  13  24
ATOM     24  C   UNL     1     -54.879 -42.782 -75.634  0.00  0.00    +0.000 C 
ATOM     25  O   UNL     1     -53.928 -42.307 -75.037  0.00  0.00    +0.000 OA
BRANCH  24  26
ATOM     26  C   UNL     1     -56.259 -42.478 -75.210  0.00  0.00    +0.000 C 
ATOM     27  C   UNL     1     -56.523 -42.070 -73.783  0.00  0.00    +0.000 C 
ATOM     28  C   UNL     1     -57.011 -43.398 -74.277  0.00  0.00    +0.000 C 
ENDBRANCH  24  26
ENDBRANCH  13  24
TORSDOF 5
