REMARK VINA RESULT:    -6.032     13.105     15.718
REMARK INTER + INTRA:          -8.836
REMARK INTER:                  -7.749
REMARK INTRA:                  -1.088
REMARK UNBOUND:                -1.042
REMARK  Name = 
REMARK  8 active torsions:
REMARK  status: ('A' for Active; 'I' for Inactive)
REMARK    1  A    between atoms: C_1  and  C_2
REMARK    2  A    between atoms: C_4  and  C_5
REMARK    3  A    between atoms: C_5  and  S_6
REMARK    4  A    between atoms: S_6  and  C_8
REMARK    5  A    between atoms: C_20  and  C_21
REMARK    6  A    between atoms: C_21  and  C_23
REMARK    7  A    between atoms: C_23  and  C_24
REMARK    8  A    between atoms: C_23  and  C_25
REMARK                            x       y       z     vdW  Elec       q    Type
REMARK                         _______ _______ _______ _____ _____    ______ ____
ROOT
ATOM      1  C   UNL     1     -55.127 -43.298 -78.634  0.00  0.00    +0.000 A 
ATOM      2  N   UNL     1     -55.121 -44.448 -79.418  0.00  0.00    +0.000 N 
ATOM      3  C   UNL     1     -55.302 -45.727 -78.855  0.00  0.00    +0.000 A 
ATOM      4  C   UNL     1     -55.712 -46.832 -79.624  0.00  0.00    +0.000 A 
ATOM      5 BR   UNL     1     -56.205 -46.626 -81.444  0.00  0.00    +0.000 Br
ATOM      6  C   UNL     1     -55.809 -48.106 -79.056  0.00  0.00    +0.000 A 
ATOM      7  C   UNL     1     -55.503 -48.293 -77.711  0.00  0.00    +0.000 A 
ATOM      8  C   UNL     1     -55.098 -47.199 -76.924  0.00  0.00    +0.000 A 
ATOM      9 CL   UNL     1     -54.815 -47.540 -75.255  0.00  0.00    +0.000 Cl
ATOM     10  C   UNL     1     -54.993 -45.916 -77.498  0.00  0.00    +0.000 A 
ATOM     11  C   UNL     1     -54.545 -44.706 -76.761  0.00  0.00    +0.000 A 
ATOM     12  O   UNL     1     -53.844 -44.820 -75.760  0.00  0.00    +0.000 OA
ATOM     13  C   UNL     1     -54.956 -43.335 -77.291  0.00  0.00    +0.000 A 
ATOM     14  H   UNL     1     -55.506 -44.312 -80.362  0.00  0.00    +0.000 HD
ENDROOT
BRANCH   1  15
ATOM     15  S   UNL     1     -55.602 -41.822 -79.611  0.00  0.00    +0.000 S 
ATOM     16  O   UNL     1     -55.891 -42.376 -80.980  0.00  0.00    +0.000 OA
BRANCH  15  17
ATOM     17  C   UNL     1     -54.056 -40.857 -79.692  0.00  0.00    +0.000 C 
BRANCH  17  21
ATOM     18  C   UNL     1     -50.682 -43.056 -82.945  0.00  0.00    +0.000 C 
ATOM     19  C   UNL     1     -51.509 -42.473 -81.866  0.00  0.00    +0.000 A 
ATOM     20  C   UNL     1     -52.679 -41.750 -81.818  0.00  0.00    +0.000 A 
ATOM     21  C   UNL     1     -52.928 -41.538 -80.431  0.00  0.00    +0.000 A 
ATOM     22  N   UNL     1     -51.943 -42.091 -79.703  0.00  0.00    +0.000 NA
ATOM     23  O   UNL     1     -51.066 -42.673 -80.598  0.00  0.00    +0.000 OA
ENDBRANCH  17  21
ENDBRANCH  15  17
ENDBRANCH   1  15
BRANCH  13  24
ATOM     24  C   UNL     1     -55.152 -42.241 -76.265  0.00  0.00    +0.000 C 
ATOM     25  O   UNL     1     -54.255 -41.427 -76.050  0.00  0.00    +0.000 OA
BRANCH  24  26
ATOM     26  C   UNL     1     -56.438 -42.176 -75.441  0.00  0.00    +0.000 C 
ATOM     27  C   UNL     1     -56.164 -42.351 -73.949  0.00  0.00    +0.000 C 
ATOM     28  C   UNL     1     -57.213 -40.879 -75.690  0.00  0.00    +0.000 C 
ENDBRANCH  24  26
ENDBRANCH  13  24
TORSDOF 5
