REMARK VINA RESULT:    -5.972     11.471     13.471
REMARK INTER + INTRA:          -8.639
REMARK INTER:                  -7.660
REMARK INTRA:                  -0.978
REMARK UNBOUND:                -0.922
REMARK  Name = 
REMARK  6 active torsions:
REMARK  status: ('A' for Active; 'I' for Inactive)
REMARK    1  A    between atoms: C_1  and  C_2
REMARK    2  A    between atoms: C_4  and  C_5
REMARK    3  A    between atoms: C_5  and  S_6
REMARK    4  A    between atoms: S_6  and  C_8
REMARK    5  A    between atoms: C_20  and  C_21
REMARK    6  A    between atoms: C_21  and  C_23
REMARK                            x       y       z     vdW  Elec       q    Type
REMARK                         _______ _______ _______ _____ _____    ______ ____
ROOT
ATOM      1  C   UNL     1     -57.505 -41.111 -62.625  0.00  0.00    +0.000 A 
ATOM      2  N   UNL     1     -57.082 -39.817 -62.266  0.00  0.00    +0.000 N 
ATOM      3  C   UNL     1     -56.046 -39.166 -62.991  0.00  0.00    +0.000 A 
ATOM      4  C   UNL     1     -55.841 -37.774 -62.955  0.00  0.00    +0.000 A 
ATOM      5 BR   UNL     1     -57.061 -36.627 -62.064  0.00  0.00    +0.000 Br
ATOM      6  C   UNL     1     -54.741 -37.187 -63.596  0.00  0.00    +0.000 A 
ATOM      7  C   UNL     1     -53.844 -37.991 -64.308  0.00  0.00    +0.000 A 
ATOM      8  C   UNL     1     -54.028 -39.373 -64.359  0.00  0.00    +0.000 A 
ATOM      9 CL   UNL     1     -52.908 -40.266 -65.323  0.00  0.00    +0.000 Cl
ATOM     10  C   UNL     1     -55.112 -39.952 -63.684  0.00  0.00    +0.000 A 
ATOM     11  C   UNL     1     -55.339 -41.409 -63.610  0.00  0.00    +0.000 A 
ATOM     12  O   UNL     1     -54.411 -42.208 -63.632  0.00  0.00    +0.000 OA
ATOM     13  C   UNL     1     -56.746 -41.893 -63.425  0.00  0.00    +0.000 A 
ATOM     14  H   UNL     1     -57.872 -39.201 -62.030  0.00  0.00    +0.000 HD
ENDROOT
BRANCH   1  15
ATOM     15  S   UNL     1     -59.265 -41.386 -62.295  0.00  0.00    +0.000 S 
ATOM     16  O   UNL     1     -59.955 -40.896 -63.539  0.00  0.00    +0.000 OA
BRANCH  15  17
ATOM     17  C   UNL     1     -59.798 -40.321 -60.922  0.00  0.00    +0.000 C 
BRANCH  17  21
ATOM     18  C   UNL     1     -62.755 -36.141 -60.958  0.00  0.00    +0.000 C 
ATOM     19  C   UNL     1     -61.781 -37.241 -61.088  0.00  0.00    +0.000 A 
ATOM     20  C   UNL     1     -61.608 -38.457 -60.471  0.00  0.00    +0.000 A 
ATOM     21  C   UNL     1     -60.523 -39.051 -61.153  0.00  0.00    +0.000 A 
ATOM     22  N   UNL     1     -60.030 -38.208 -62.077  0.00  0.00    +0.000 NA
ATOM     23  O   UNL     1     -60.821 -37.079 -62.033  0.00  0.00    +0.000 OA
ENDBRANCH  17  21
ENDBRANCH  15  17
ENDBRANCH   1  15
BRANCH  13  24
ATOM     24  C   UNL     1     -57.100 -43.052 -64.294  0.00  0.00    +0.000 C 
ATOM     25  O   UNL     1     -57.365 -44.136 -63.803  0.00  0.00    +0.000 OA
BRANCH  24  26
ATOM     26  C   UNL     1     -57.171 -42.851 -65.753  0.00  0.00    +0.000 C 
ATOM     27  C   UNL     1     -57.721 -41.557 -66.298  0.00  0.00    +0.000 C 
ATOM     28  C   UNL     1     -58.497 -42.827 -66.477  0.00  0.00    +0.000 C 
ENDBRANCH  24  26
ENDBRANCH  13  24
TORSDOF 5
