REMARK VINA RESULT:    -5.525     13.158     15.407
REMARK INTER + INTRA:          -8.138
REMARK INTER:                  -7.362
REMARK INTRA:                  -0.776
REMARK UNBOUND:                -0.997
REMARK  Name = 
REMARK  8 active torsions:
REMARK  status: ('A' for Active; 'I' for Inactive)
REMARK    1  A    between atoms: C_1  and  C_2
REMARK    2  A    between atoms: C_4  and  C_5
REMARK    3  A    between atoms: C_5  and  S_6
REMARK    4  A    between atoms: S_6  and  C_8
REMARK    5  A    between atoms: C_20  and  C_21
REMARK    6  A    between atoms: C_21  and  C_23
REMARK    7  A    between atoms: C_23  and  C_24
REMARK    8  A    between atoms: C_23  and  C_25
REMARK                            x       y       z     vdW  Elec       q    Type
REMARK                         _______ _______ _______ _____ _____    ______ ____
ROOT
ATOM      1  C   UNL     1     -57.577 -39.133 -62.327  0.00  0.00    +0.000 A 
ATOM      2  N   UNL     1     -58.895 -39.504 -62.072  0.00  0.00    +0.000 N 
ATOM      3  C   UNL     1     -59.907 -38.544 -61.862  0.00  0.00    +0.000 A 
ATOM      4  C   UNL     1     -61.274 -38.859 -61.989  0.00  0.00    +0.000 A 
ATOM      5 CL   UNL     1     -61.773 -40.408 -62.572  0.00  0.00    +0.000 Cl
ATOM      6  C   UNL     1     -62.260 -37.924 -61.675  0.00  0.00    +0.000 A 
ATOM      7  C   UNL     1     -61.889 -36.653 -61.231  0.00  0.00    +0.000 A 
ATOM      8  C   UNL     1     -60.534 -36.316 -61.113  0.00  0.00    +0.000 A 
ATOM      9 CL   UNL     1     -60.200 -34.696 -60.619  0.00  0.00    +0.000 Cl
ATOM     10  C   UNL     1     -59.547 -37.265 -61.416  0.00  0.00    +0.000 A 
ATOM     11  C   UNL     1     -58.087 -37.046 -61.251  0.00  0.00    +0.000 A 
ATOM     12  O   UNL     1     -57.693 -36.252 -60.406  0.00  0.00    +0.000 OA
ATOM     13  C   UNL     1     -57.110 -37.878 -62.074  0.00  0.00    +0.000 A 
ATOM     14  H   UNL     1     -59.188 -40.351 -62.577  0.00  0.00    +0.000 HD
ENDROOT
BRANCH   1  15
ATOM     15  S   UNL     1     -56.683 -40.449 -63.249  0.00  0.00    +0.000 S 
ATOM     16  O   UNL     1     -57.385 -40.490 -64.580  0.00  0.00    +0.000 OA
BRANCH  15  17
ATOM     17  C   UNL     1     -57.147 -41.975 -62.334  0.00  0.00    +0.000 C 
BRANCH  17  21
ATOM     18  C   UNL     1     -53.234 -45.336 -61.980  0.00  0.00    +0.000 C 
ATOM     19  C   UNL     1     -54.307 -44.323 -61.886  0.00  0.00    +0.000 A 
ATOM     20  C   UNL     1     -55.172 -43.733 -62.777  0.00  0.00    +0.000 A 
ATOM     21  C   UNL     1     -55.982 -42.868 -61.988  0.00  0.00    +0.000 A 
ATOM     22  N   UNL     1     -55.591 -42.920 -60.703  0.00  0.00    +0.000 NA
ATOM     23  O   UNL     1     -54.554 -43.831 -60.644  0.00  0.00    +0.000 OA
ENDBRANCH  17  21
ENDBRANCH  15  17
ENDBRANCH   1  15
BRANCH  13  24
ATOM     24  C   UNL     1     -55.836 -37.157 -62.464  0.00  0.00    +0.000 C 
ATOM     25  O   UNL     1     -54.796 -37.354 -61.821  0.00  0.00    +0.000 OA
BRANCH  24  26
ATOM     26  C   UNL     1     -55.810 -36.077 -63.529  0.00  0.00    +0.000 C 
ATOM     27  C   UNL     1     -55.457 -34.743 -62.897  0.00  0.00    +0.000 C 
ATOM     28  C   UNL     1     -54.907 -36.458 -64.695  0.00  0.00    +0.000 C 
ENDBRANCH  24  26
ENDBRANCH  13  24
TORSDOF 5
