REMARK VINA RESULT:    -6.774      0.000      0.000
REMARK INTER + INTRA:          -9.028
REMARK INTER:                  -8.358
REMARK INTRA:                  -0.670
REMARK UNBOUND:                -0.670
REMARK  Name = 
REMARK  6 active torsions:
REMARK  status: ('A' for Active; 'I' for Inactive)
REMARK    1  A    between atoms: C_1  and  C_2
REMARK    2  A    between atoms: C_2  and  C_4
REMARK    3  A    between atoms: C_5  and  S_6
REMARK    4  A    between atoms: S_6  and  C_8
REMARK    5  A    between atoms: C_8  and  C_9
REMARK    6  A    between atoms: C_11  and  C_12
REMARK                            x       y       z     vdW  Elec       q    Type
REMARK                         _______ _______ _______ _____ _____    ______ ____
ROOT
ATOM      1  C   UNL     1     -56.119 -42.853 -76.703  0.00  0.00    +0.000 A 
ATOM      2  C   UNL     1     -55.132 -43.676 -76.282  0.00  0.00    +0.000 A 
ATOM      3  N   UNL     1     -55.172 -45.048 -76.436  0.00  0.00    +0.000 N 
ATOM      4  C   UNL     1     -56.299 -45.729 -76.924  0.00  0.00    +0.000 A 
ATOM      5  C   UNL     1     -56.305 -47.132 -77.040  0.00  0.00    +0.000 A 
ATOM      6 BR   UNL     1     -54.821 -48.165 -76.458  0.00  0.00    +0.000 Br
ATOM      7  C   UNL     1     -57.400 -47.807 -77.577  0.00  0.00    +0.000 A 
ATOM      8  C   UNL     1     -58.503 -47.083 -78.017  0.00  0.00    +0.000 A 
ATOM      9  C   UNL     1     -58.517 -45.683 -77.932  0.00  0.00    +0.000 A 
ATOM     10 CL   UNL     1     -59.958 -44.933 -78.524  0.00  0.00    +0.000 Cl
ATOM     11  C   UNL     1     -57.406 -45.001 -77.402  0.00  0.00    +0.000 A 
ATOM     12  C   UNL     1     -57.343 -43.520 -77.274  0.00  0.00    +0.000 A 
ATOM     13  O   UNL     1     -58.311 -42.842 -77.588  0.00  0.00    +0.000 OA
ATOM     14  H   UNL     1     -54.568 -45.585 -75.810  0.00  0.00    +0.000 HD
ENDROOT
BRANCH   1  16
ATOM     15  C   UNL     1     -55.505 -40.543 -77.736  0.00  0.00    +0.000 C 
ATOM     16  C   UNL     1     -56.091 -41.349 -76.598  0.00  0.00    +0.000 C 
ATOM     17  O   UNL     1     -56.512 -40.760 -75.602  0.00  0.00    +0.000 OA
ENDBRANCH   1  16
BRANCH   2  18
ATOM     18  S   UNL     1     -53.727 -43.038 -75.301  0.00  0.00    +0.000 S 
ATOM     19  O   UNL     1     -53.077 -44.287 -74.766  0.00  0.00    +0.000 OA
BRANCH  18  20
ATOM     20  C   UNL     1     -52.647 -42.446 -76.652  0.00  0.00    +0.000 C 
BRANCH  20  21
ATOM     21  C   UNL     1     -51.659 -41.414 -76.204  0.00  0.00    +0.000 A 
ATOM     22  C   UNL     1     -51.639 -40.007 -76.404  0.00  0.00    +0.000 A 
ATOM     23  C   UNL     1     -50.536 -39.572 -75.713  0.00  0.00    +0.000 A 
ATOM     24  C   UNL     1     -49.909 -38.253 -75.487  0.00  0.00    +0.000 C 
ATOM     25  O   UNL     1     -49.936 -40.635 -75.120  0.00  0.00    +0.000 OA
ATOM     26  N   UNL     1     -50.637 -41.789 -75.419  0.00  0.00    +0.000 NA
ENDBRANCH  20  21
ENDBRANCH  18  20
ENDBRANCH   2  18
TORSDOF 4
