REMARK VINA RESULT:    -5.954     15.179     16.492
REMARK INTER + INTRA:          -8.350
REMARK INTER:                  -7.290
REMARK INTRA:                  -1.059
REMARK UNBOUND:                -1.003
REMARK  Name = 
REMARK  6 active torsions:
REMARK  status: ('A' for Active; 'I' for Inactive)
REMARK    1  A    between atoms: C_1  and  C_2
REMARK    2  A    between atoms: C_2  and  C_4
REMARK    3  A    between atoms: C_5  and  S_6
REMARK    4  A    between atoms: S_6  and  C_8
REMARK    5  A    between atoms: C_8  and  C_9
REMARK    6  A    between atoms: C_11  and  C_12
REMARK                            x       y       z     vdW  Elec       q    Type
REMARK                         _______ _______ _______ _____ _____    ______ ____
ROOT
ATOM      1  C   UNL     1     -53.382 -41.817 -77.950  0.00  0.00    +0.000 A 
ATOM      2  C   UNL     1     -54.725 -41.744 -78.097  0.00  0.00    +0.000 A 
ATOM      3  N   UNL     1     -55.363 -41.924 -79.309  0.00  0.00    +0.000 N 
ATOM      4  C   UNL     1     -54.669 -42.030 -80.529  0.00  0.00    +0.000 A 
ATOM      5  C   UNL     1     -55.358 -42.133 -81.749  0.00  0.00    +0.000 A 
ATOM      6 BR   UNL     1     -57.256 -42.047 -81.807  0.00  0.00    +0.000 Br
ATOM      7  C   UNL     1     -54.674 -42.293 -82.953  0.00  0.00    +0.000 A 
ATOM      8  C   UNL     1     -53.287 -42.361 -82.949  0.00  0.00    +0.000 A 
ATOM      9  C   UNL     1     -52.573 -42.285 -81.743  0.00  0.00    +0.000 A 
ATOM     10 CL   UNL     1     -50.854 -42.374 -81.906  0.00  0.00    +0.000 Cl
ATOM     11  C   UNL     1     -53.267 -42.131 -80.525  0.00  0.00    +0.000 A 
ATOM     12  C   UNL     1     -52.583 -42.034 -79.211  0.00  0.00    +0.000 A 
ATOM     13  O   UNL     1     -51.367 -42.091 -79.152  0.00  0.00    +0.000 OA
ATOM     14  H   UNL     1     -56.296 -41.515 -79.379  0.00  0.00    +0.000 HD
ENDROOT
BRANCH   1  16
ATOM     15  C   UNL     1     -52.535 -42.826 -75.695  0.00  0.00    +0.000 C 
ATOM     16  C   UNL     1     -52.649 -41.649 -76.636  0.00  0.00    +0.000 C 
ATOM     17  O   UNL     1     -52.149 -40.572 -76.309  0.00  0.00    +0.000 OA
ENDBRANCH   1  16
BRANCH   2  18
ATOM     18  S   UNL     1     -55.805 -41.219 -76.725  0.00  0.00    +0.000 S 
ATOM     19  O   UNL     1     -56.530 -40.025 -77.286  0.00  0.00    +0.000 OA
BRANCH  18  20
ATOM     20  C   UNL     1     -57.010 -42.595 -76.739  0.00  0.00    +0.000 C 
BRANCH  20  21
ATOM     21  C   UNL     1     -56.352 -43.937 -76.692  0.00  0.00    +0.000 A 
ATOM     22  C   UNL     1     -55.763 -44.633 -75.603  0.00  0.00    +0.000 A 
ATOM     23  C   UNL     1     -55.333 -45.823 -76.140  0.00  0.00    +0.000 A 
ATOM     24  C   UNL     1     -54.604 -46.992 -75.616  0.00  0.00    +0.000 C 
ATOM     25  O   UNL     1     -55.677 -45.862 -77.454  0.00  0.00    +0.000 OA
ATOM     26  N   UNL     1     -56.320 -44.689 -77.803  0.00  0.00    +0.000 NA
ENDBRANCH  20  21
ENDBRANCH  18  20
ENDBRANCH   2  18
TORSDOF 4
