REMARK VINA RESULT:    -6.388      3.432      5.263
REMARK INTER + INTRA:          -8.551
REMARK INTER:                  -7.577
REMARK INTRA:                  -0.974
REMARK UNBOUND:                -0.670
REMARK  Name = 
REMARK  6 active torsions:
REMARK  status: ('A' for Active; 'I' for Inactive)
REMARK    1  A    between atoms: C_1  and  C_2
REMARK    2  A    between atoms: C_2  and  C_4
REMARK    3  A    between atoms: C_5  and  S_6
REMARK    4  A    between atoms: S_6  and  C_8
REMARK    5  A    between atoms: C_8  and  C_9
REMARK    6  A    between atoms: C_11  and  C_12
REMARK                            x       y       z     vdW  Elec       q    Type
REMARK                         _______ _______ _______ _____ _____    ______ ____
ROOT
ATOM      1  C   UNL     1     -54.730 -42.542 -77.568  0.00  0.00    +0.000 A 
ATOM      2  C   UNL     1     -55.840 -42.989 -78.196  0.00  0.00    +0.000 A 
ATOM      3  N   UNL     1     -56.370 -44.249 -77.993  0.00  0.00    +0.000 N 
ATOM      4  C   UNL     1     -55.732 -45.230 -77.217  0.00  0.00    +0.000 A 
ATOM      5  C   UNL     1     -56.295 -46.510 -77.059  0.00  0.00    +0.000 A 
ATOM      6 BR   UNL     1     -57.897 -46.988 -77.960  0.00  0.00    +0.000 Br
ATOM      7  C   UNL     1     -55.694 -47.467 -76.243  0.00  0.00    +0.000 A 
ATOM      8  C   UNL     1     -54.522 -47.151 -75.563  0.00  0.00    +0.000 A 
ATOM      9  C   UNL     1     -53.949 -45.877 -75.687  0.00  0.00    +0.000 A 
ATOM     10 CL   UNL     1     -52.498 -45.641 -74.777  0.00  0.00    +0.000 Cl
ATOM     11  C   UNL     1     -54.564 -44.907 -76.500  0.00  0.00    +0.000 A 
ATOM     12  C   UNL     1     -54.018 -43.535 -76.687  0.00  0.00    +0.000 A 
ATOM     13  O   UNL     1     -52.956 -43.227 -76.162  0.00  0.00    +0.000 OA
ATOM     14  H   UNL     1     -56.981 -44.600 -78.734  0.00  0.00    +0.000 HD
ENDROOT
BRANCH   1  16
ATOM     15  C   UNL     1     -53.124 -40.910 -78.809  0.00  0.00    +0.000 C 
ATOM     16  C   UNL     1     -54.149 -41.159 -77.724  0.00  0.00    +0.000 C 
ATOM     17  O   UNL     1     -54.468 -40.232 -76.979  0.00  0.00    +0.000 OA
ENDBRANCH   1  16
BRANCH   2  18
ATOM     18  S   UNL     1     -56.636 -42.008 -79.517  0.00  0.00    +0.000 S 
ATOM     19  O   UNL     1     -56.817 -43.003 -80.633  0.00  0.00    +0.000 OA
BRANCH  18  20
ATOM     20  C   UNL     1     -58.290 -41.772 -78.777  0.00  0.00    +0.000 C 
BRANCH  20  21
ATOM     21  C   UNL     1     -58.236 -41.327 -77.349  0.00  0.00    +0.000 A 
ATOM     22  C   UNL     1     -58.583 -42.014 -76.154  0.00  0.00    +0.000 A 
ATOM     23  C   UNL     1     -58.264 -41.141 -75.144  0.00  0.00    +0.000 A 
ATOM     24  C   UNL     1     -58.356 -41.185 -73.670  0.00  0.00    +0.000 C 
ATOM     25  O   UNL     1     -57.744 -40.010 -75.683  0.00  0.00    +0.000 OA
ATOM     26  N   UNL     1     -57.719 -40.122 -77.061  0.00  0.00    +0.000 NA
ENDBRANCH  20  21
ENDBRANCH  18  20
ENDBRANCH   2  18
TORSDOF 4
