REMARK VINA RESULT:    -5.799     12.032     15.110
REMARK INTER + INTRA:          -7.996
REMARK INTER:                  -7.184
REMARK INTRA:                  -0.812
REMARK UNBOUND:                -0.841
REMARK  Name = 
REMARK  6 active torsions:
REMARK  status: ('A' for Active; 'I' for Inactive)
REMARK    1  A    between atoms: C_1  and  C_2
REMARK    2  A    between atoms: C_2  and  C_4
REMARK    3  A    between atoms: C_5  and  S_6
REMARK    4  A    between atoms: S_6  and  C_8
REMARK    5  A    between atoms: C_8  and  C_9
REMARK    6  A    between atoms: C_11  and  C_12
REMARK                            x       y       z     vdW  Elec       q    Type
REMARK                         _______ _______ _______ _____ _____    ______ ____
ROOT
ATOM      1  C   UNL     1     -67.209 -47.856 -57.215  0.00  0.00    +0.000 A 
ATOM      2  C   UNL     1     -66.110 -47.452 -56.538  0.00  0.00    +0.000 A 
ATOM      3  N   UNL     1     -65.555 -48.161 -55.491  0.00  0.00    +0.000 N 
ATOM      4  C   UNL     1     -66.165 -49.296 -54.933  0.00  0.00    +0.000 A 
ATOM      5  C   UNL     1     -65.581 -49.960 -53.836  0.00  0.00    +0.000 A 
ATOM      6 BR   UNL     1     -63.991 -49.303 -53.031  0.00  0.00    +0.000 Br
ATOM      7  C   UNL     1     -66.153 -51.113 -53.309  0.00  0.00    +0.000 A 
ATOM      8  C   UNL     1     -67.315 -51.627 -53.881  0.00  0.00    +0.000 A 
ATOM      9  C   UNL     1     -67.899 -50.998 -54.987  0.00  0.00    +0.000 A 
ATOM     10 CL   UNL     1     -69.343 -51.749 -55.576  0.00  0.00    +0.000 Cl
ATOM     11  C   UNL     1     -67.314 -49.838 -55.531  0.00  0.00    +0.000 A 
ATOM     12  C   UNL     1     -67.869 -49.115 -56.714  0.00  0.00    +0.000 A 
ATOM     13  O   UNL     1     -68.890 -49.522 -57.256  0.00  0.00    +0.000 OA
ATOM     14  H   UNL     1     -64.984 -47.611 -54.845  0.00  0.00    +0.000 HD
ENDROOT
BRANCH   1  16
ATOM     15  C   UNL     1     -67.264 -47.354 -59.771  0.00  0.00    +0.000 C 
ATOM     16  C   UNL     1     -67.811 -47.115 -58.380  0.00  0.00    +0.000 C 
ATOM     17  O   UNL     1     -68.737 -46.321 -58.233  0.00  0.00    +0.000 OA
ENDBRANCH   1  16
BRANCH   2  18
ATOM     18  S   UNL     1     -65.346 -45.827 -56.852  0.00  0.00    +0.000 S 
ATOM     19  O   UNL     1     -65.714 -45.027 -55.630  0.00  0.00    +0.000 OA
BRANCH  18  20
ATOM     20  C   UNL     1     -63.587 -46.284 -56.644  0.00  0.00    +0.000 C 
BRANCH  20  21
ATOM     21  C   UNL     1     -62.882 -46.441 -57.951  0.00  0.00    +0.000 A 
ATOM     22  C   UNL     1     -63.407 -46.589 -59.262  0.00  0.00    +0.000 A 
ATOM     23  C   UNL     1     -62.300 -46.690 -60.069  0.00  0.00    +0.000 A 
ATOM     24  C   UNL     1     -62.089 -46.913 -61.510  0.00  0.00    +0.000 C 
ATOM     25  O   UNL     1     -61.183 -46.562 -59.308  0.00  0.00    +0.000 OA
ATOM     26  N   UNL     1     -61.541 -46.398 -57.982  0.00  0.00    +0.000 NA
ENDBRANCH  20  21
ENDBRANCH  18  20
ENDBRANCH   2  18
TORSDOF 4
