REMARK VINA RESULT:    -6.007     13.941     15.506
REMARK INTER + INTRA:          -8.661
REMARK INTER:                  -7.548
REMARK INTRA:                  -1.113
REMARK UNBOUND:                -0.899
REMARK  Name = 
REMARK  6 active torsions:
REMARK  status: ('A' for Active; 'I' for Inactive)
REMARK    1  A    between atoms: C_1  and  C_2
REMARK    2  A    between atoms: C_4  and  C_5
REMARK    3  A    between atoms: C_5  and  S_6
REMARK    4  A    between atoms: S_6  and  C_8
REMARK    5  A    between atoms: C_20  and  C_21
REMARK    6  A    between atoms: C_21  and  C_23
REMARK                            x       y       z     vdW  Elec       q    Type
REMARK                         _______ _______ _______ _____ _____    ______ ____
ROOT
ATOM      1  C   UNL     1     -56.525 -39.952 -63.624  0.00  0.00    +0.000 A 
ATOM      2  N   UNL     1     -57.739 -39.934 -62.911  0.00  0.00    +0.000 N 
ATOM      3  C   UNL     1     -58.130 -38.780 -62.178  0.00  0.00    +0.000 A 
ATOM      4  C   UNL     1     -59.458 -38.538 -61.779  0.00  0.00    +0.000 A 
ATOM      5 BR   UNL     1     -60.874 -39.662 -62.354  0.00  0.00    +0.000 Br
ATOM      6  C   UNL     1     -59.782 -37.445 -60.963  0.00  0.00    +0.000 A 
ATOM      7  C   UNL     1     -58.776 -36.561 -60.558  0.00  0.00    +0.000 A 
ATOM      8  C   UNL     1     -57.453 -36.779 -60.942  0.00  0.00    +0.000 A 
ATOM      9 CL   UNL     1     -56.298 -35.592 -60.451  0.00  0.00    +0.000 Cl
ATOM     10  C   UNL     1     -57.136 -37.897 -61.729  0.00  0.00    +0.000 A 
ATOM     11  C   UNL     1     -55.757 -38.256 -62.113  0.00  0.00    +0.000 A 
ATOM     12  O   UNL     1     -54.799 -37.989 -61.399  0.00  0.00    +0.000 OA
ATOM     13  C   UNL     1     -55.560 -39.039 -63.377  0.00  0.00    +0.000 A 
ATOM     14  H   UNL     1     -58.507 -40.369 -63.440  0.00  0.00    +0.000 HD
ENDROOT
BRANCH   1  15
ATOM     15  S   UNL     1     -56.609 -40.975 -65.118  0.00  0.00    +0.000 S 
ATOM     16  O   UNL     1     -58.083 -41.143 -65.367  0.00  0.00    +0.000 OA
BRANCH  15  17
ATOM     17  C   UNL     1     -55.926 -42.621 -64.765  0.00  0.00    +0.000 C 
BRANCH  17  21
ATOM     18  C   UNL     1     -54.006 -44.161 -60.275  0.00  0.00    +0.000 C 
ATOM     19  C   UNL     1     -54.735 -43.668 -61.459  0.00  0.00    +0.000 A 
ATOM     20  C   UNL     1     -54.410 -43.464 -62.779  0.00  0.00    +0.000 A 
ATOM     21  C   UNL     1     -55.621 -43.063 -63.385  0.00  0.00    +0.000 A 
ATOM     22  N   UNL     1     -56.598 -42.963 -62.466  0.00  0.00    +0.000 NA
ATOM     23  O   UNL     1     -56.038 -43.345 -61.264  0.00  0.00    +0.000 OA
ENDBRANCH  17  21
ENDBRANCH  15  17
ENDBRANCH   1  15
BRANCH  13  24
ATOM     24  C   UNL     1     -54.429 -38.548 -64.216  0.00  0.00    +0.000 C 
ATOM     25  O   UNL     1     -54.505 -37.476 -64.791  0.00  0.00    +0.000 OA
BRANCH  24  26
ATOM     26  C   UNL     1     -53.199 -39.358 -64.297  0.00  0.00    +0.000 C 
ATOM     27  C   UNL     1     -52.225 -39.116 -65.422  0.00  0.00    +0.000 C 
ATOM     28  C   UNL     1     -53.013 -40.390 -65.384  0.00  0.00    +0.000 C 
ENDBRANCH  24  26
ENDBRANCH  13  24
TORSDOF 5
