REMARK VINA RESULT:    -5.816      4.608      7.401
REMARK INTER + INTRA:          -8.441
REMARK INTER:                  -7.589
REMARK INTRA:                  -0.852
REMARK UNBOUND:                -0.925
REMARK  Name = 
REMARK  8 active torsions:
REMARK  status: ('A' for Active; 'I' for Inactive)
REMARK    1  A    between atoms: C_1  and  C_2
REMARK    2  A    between atoms: C_4  and  C_5
REMARK    3  A    between atoms: C_5  and  S_6
REMARK    4  A    between atoms: S_6  and  C_8
REMARK    5  A    between atoms: C_20  and  C_21
REMARK    6  A    between atoms: C_21  and  C_23
REMARK    7  A    between atoms: C_23  and  C_24
REMARK    8  A    between atoms: C_23  and  C_25
REMARK                            x       y       z     vdW  Elec       q    Type
REMARK                         _______ _______ _______ _____ _____    ______ ____
ROOT
ATOM      1  C   UNL     1     -58.585 -44.370 -77.728  0.00  0.00    +0.000 A 
ATOM      2  N   UNL     1     -59.212 -45.536 -78.159  0.00  0.00    +0.000 N 
ATOM      3  C   UNL     1     -58.716 -46.813 -77.821  0.00  0.00    +0.000 A 
ATOM      4  C   UNL     1     -59.514 -47.971 -77.902  0.00  0.00    +0.000 A 
ATOM      5 CL   UNL     1     -61.199 -47.858 -78.268  0.00  0.00    +0.000 Cl
ATOM      6  C   UNL     1     -58.973 -49.235 -77.663  0.00  0.00    +0.000 A 
ATOM      7  C   UNL     1     -57.621 -49.356 -77.336  0.00  0.00    +0.000 A 
ATOM      8  C   UNL     1     -56.815 -48.215 -77.235  0.00  0.00    +0.000 A 
ATOM      9 CL   UNL     1     -55.179 -48.486 -76.758  0.00  0.00    +0.000 Cl
ATOM     10  C   UNL     1     -57.360 -46.947 -77.490  0.00  0.00    +0.000 A 
ATOM     11  C   UNL     1     -56.585 -45.681 -77.492  0.00  0.00    +0.000 A 
ATOM     12  O   UNL     1     -55.390 -45.711 -77.760  0.00  0.00    +0.000 OA
ATOM     13  C   UNL     1     -57.309 -44.362 -77.248  0.00  0.00    +0.000 A 
ATOM     14  H   UNL     1     -60.237 -45.459 -78.204  0.00  0.00    +0.000 HD
ENDROOT
BRANCH   1  15
ATOM     15  S   UNL     1     -59.768 -42.964 -77.666  0.00  0.00    +0.000 S 
ATOM     16  O   UNL     1     -61.065 -43.570 -78.128  0.00  0.00    +0.000 OA
BRANCH  15  17
ATOM     17  C   UNL     1     -59.164 -41.864 -79.011  0.00  0.00    +0.000 C 
BRANCH  17  21
ATOM     18  C   UNL     1     -61.742 -37.383 -78.909  0.00  0.00    +0.000 C 
ATOM     19  C   UNL     1     -61.083 -38.688 -79.129  0.00  0.00    +0.000 A 
ATOM     20  C   UNL     1     -60.124 -39.421 -78.469  0.00  0.00    +0.000 A 
ATOM     21  C   UNL     1     -59.998 -40.624 -79.218  0.00  0.00    +0.000 A 
ATOM     22  N   UNL     1     -60.816 -40.588 -80.284  0.00  0.00    +0.000 NA
ATOM     23  O   UNL     1     -61.493 -39.386 -80.220  0.00  0.00    +0.000 OA
ENDBRANCH  17  21
ENDBRANCH  15  17
ENDBRANCH   1  15
BRANCH  13  24
ATOM     24  C   UNL     1     -56.494 -43.318 -76.513  0.00  0.00    +0.000 C 
ATOM     25  O   UNL     1     -55.990 -42.377 -77.141  0.00  0.00    +0.000 OA
BRANCH  24  26
ATOM     26  C   UNL     1     -56.139 -43.454 -75.045  0.00  0.00    +0.000 C 
ATOM     27  C   UNL     1     -54.890 -42.647 -74.743  0.00  0.00    +0.000 C 
ATOM     28  C   UNL     1     -57.320 -43.110 -74.145  0.00  0.00    +0.000 C 
ENDBRANCH  24  26
ENDBRANCH  13  24
TORSDOF 5
