REMARK VINA RESULT:    -5.858      3.864      5.979
REMARK INTER + INTRA:          -8.512
REMARK INTER:                  -7.717
REMARK INTRA:                  -0.795
REMARK UNBOUND:                -0.942
REMARK  Name = 
REMARK  8 active torsions:
REMARK  status: ('A' for Active; 'I' for Inactive)
REMARK    1  A    between atoms: C_1  and  C_2
REMARK    2  A    between atoms: C_4  and  C_5
REMARK    3  A    between atoms: C_5  and  S_6
REMARK    4  A    between atoms: S_6  and  C_8
REMARK    5  A    between atoms: C_20  and  C_21
REMARK    6  A    between atoms: C_21  and  C_23
REMARK    7  A    between atoms: C_23  and  C_24
REMARK    8  A    between atoms: C_23  and  C_25
REMARK                            x       y       z     vdW  Elec       q    Type
REMARK                         _______ _______ _______ _____ _____    ______ ____
ROOT
ATOM      1  C   UNL     1     -56.748 -40.870 -61.413  0.00  0.00    +0.000 A 
ATOM      2  N   UNL     1     -56.761 -41.574 -60.211  0.00  0.00    +0.000 N 
ATOM      3  C   UNL     1     -55.795 -42.561 -59.921  0.00  0.00    +0.000 A 
ATOM      4  C   UNL     1     -55.546 -42.999 -58.605  0.00  0.00    +0.000 A 
ATOM      5 CL   UNL     1     -56.304 -42.225 -57.259  0.00  0.00    +0.000 Cl
ATOM      6  C   UNL     1     -54.663 -44.049 -58.352  0.00  0.00    +0.000 A 
ATOM      7  C   UNL     1     -54.012 -44.675 -59.417  0.00  0.00    +0.000 A 
ATOM      8  C   UNL     1     -54.235 -44.243 -60.731  0.00  0.00    +0.000 A 
ATOM      9 CL   UNL     1     -53.323 -45.048 -61.955  0.00  0.00    +0.000 Cl
ATOM     10  C   UNL     1     -55.135 -43.196 -60.981  0.00  0.00    +0.000 A 
ATOM     11  C   UNL     1     -55.509 -42.711 -62.334  0.00  0.00    +0.000 A 
ATOM     12  O   UNL     1     -55.452 -43.483 -63.284  0.00  0.00    +0.000 OA
ATOM     13  C   UNL     1     -56.039 -41.292 -62.498  0.00  0.00    +0.000 A 
ATOM     14  H   UNL     1     -57.070 -41.010 -59.409  0.00  0.00    +0.000 HD
ENDROOT
BRANCH   1  15
ATOM     15  S   UNL     1     -57.581 -39.241 -61.237  0.00  0.00    +0.000 S 
ATOM     16  O   UNL     1     -58.453 -39.153 -62.460  0.00  0.00    +0.000 OA
BRANCH  15  17
ATOM     17  C   UNL     1     -56.198 -38.050 -61.460  0.00  0.00    +0.000 C 
BRANCH  17  21
ATOM     18  C   UNL     1     -58.426 -33.610 -62.893  0.00  0.00    +0.000 C 
ATOM     19  C   UNL     1     -57.619 -34.808 -62.580  0.00  0.00    +0.000 A 
ATOM     20  C   UNL     1     -57.783 -35.910 -61.773  0.00  0.00    +0.000 A 
ATOM     21  C   UNL     1     -56.620 -36.703 -61.991  0.00  0.00    +0.000 A 
ATOM     22  N   UNL     1     -55.799 -36.083 -62.855  0.00  0.00    +0.000 NA
ATOM     23  O   UNL     1     -56.427 -34.909 -63.223  0.00  0.00    +0.000 OA
ENDBRANCH  17  21
ENDBRANCH  15  17
ENDBRANCH   1  15
BRANCH  13  24
ATOM     24  C   UNL     1     -55.666 -40.622 -63.805  0.00  0.00    +0.000 C 
ATOM     25  O   UNL     1     -56.520 -40.482 -64.690  0.00  0.00    +0.000 OA
BRANCH  24  26
ATOM     26  C   UNL     1     -54.236 -40.245 -64.142  0.00  0.00    +0.000 C 
ATOM     27  C   UNL     1     -53.763 -41.045 -65.341  0.00  0.00    +0.000 C 
ATOM     28  C   UNL     1     -54.077 -38.738 -64.312  0.00  0.00    +0.000 C 
ENDBRANCH  24  26
ENDBRANCH  13  24
TORSDOF 5
