REMARK VINA RESULT:    -5.347      5.210      6.985
REMARK INTER + INTRA:          -7.317
REMARK INTER:                  -6.622
REMARK INTRA:                  -0.695
REMARK UNBOUND:                -0.720
REMARK  Name = 
REMARK  6 active torsions:
REMARK  status: ('A' for Active; 'I' for Inactive)
REMARK    1  A    between atoms: C_1  and  C_2
REMARK    2  A    between atoms: C_2  and  C_4
REMARK    3  A    between atoms: C_5  and  S_6
REMARK    4  A    between atoms: S_6  and  C_8
REMARK    5  A    between atoms: C_8  and  C_9
REMARK    6  A    between atoms: C_11  and  C_12
REMARK                            x       y       z     vdW  Elec       q    Type
REMARK                         _______ _______ _______ _____ _____    ______ ____
ROOT
ATOM      1  C   UNL     1     -54.764 -40.974 -78.347  0.00  0.00    +0.000 A 
ATOM      2  C   UNL     1     -55.628 -41.173 -79.373  0.00  0.00    +0.000 A 
ATOM      3  N   UNL     1     -56.945 -41.555 -79.187  0.00  0.00    +0.000 N 
ATOM      4  C   UNL     1     -57.464 -41.923 -77.932  0.00  0.00    +0.000 A 
ATOM      5  C   UNL     1     -58.788 -42.370 -77.797  0.00  0.00    +0.000 A 
ATOM      6 BR   UNL     1     -59.901 -42.600 -79.320  0.00  0.00    +0.000 Br
ATOM      7  C   UNL     1     -59.325 -42.671 -76.544  0.00  0.00    +0.000 A 
ATOM      8  C   UNL     1     -58.539 -42.518 -75.405  0.00  0.00    +0.000 A 
ATOM      9  C   UNL     1     -57.222 -42.067 -75.510  0.00  0.00    +0.000 A 
ATOM     10 CL   UNL     1     -56.372 -41.944 -74.008  0.00  0.00    +0.000 Cl
ATOM     11  C   UNL     1     -56.685 -41.754 -76.776  0.00  0.00    +0.000 A 
ATOM     12  C   UNL     1     -55.295 -41.268 -76.967  0.00  0.00    +0.000 A 
ATOM     13  O   UNL     1     -54.558 -41.144 -75.991  0.00  0.00    +0.000 OA
ATOM     14  H   UNL     1     -57.418 -41.950 -79.999  0.00  0.00    +0.000 HD
ENDROOT
BRANCH   1  16
ATOM     15  C   UNL     1     -52.237 -41.552 -78.601  0.00  0.00    +0.000 C 
ATOM     16  C   UNL     1     -53.336 -40.518 -78.490  0.00  0.00    +0.000 C 
ATOM     17  O   UNL     1     -53.035 -39.319 -78.505  0.00  0.00    +0.000 OA
ENDBRANCH   1  16
BRANCH   2  18
ATOM     18  S   UNL     1     -55.062 -41.100 -81.109  0.00  0.00    +0.000 S 
ATOM     19  O   UNL     1     -54.379 -42.425 -81.320  0.00  0.00    +0.000 OA
BRANCH  18  20
ATOM     20  C   UNL     1     -56.669 -41.219 -81.973  0.00  0.00    +0.000 C 
BRANCH  20  21
ATOM     21  C   UNL     1     -56.631 -40.640 -83.354  0.00  0.00    +0.000 A 
ATOM     22  C   UNL     1     -57.654 -40.019 -84.119  0.00  0.00    +0.000 A 
ATOM     23  C   UNL     1     -57.047 -39.669 -85.299  0.00  0.00    +0.000 A 
ATOM     24  C   UNL     1     -57.501 -39.041 -86.555  0.00  0.00    +0.000 C 
ATOM     25  O   UNL     1     -55.733 -40.013 -85.237  0.00  0.00    +0.000 OA
ATOM     26  N   UNL     1     -55.467 -40.612 -84.020  0.00  0.00    +0.000 NA
ENDBRANCH  20  21
ENDBRANCH  18  20
ENDBRANCH   2  18
TORSDOF 4
