REMARK VINA RESULT:    -5.597      8.248     10.551
REMARK INTER + INTRA:          -8.361
REMARK INTER:                  -7.261
REMARK INTRA:                  -1.100
REMARK UNBOUND:                -1.127
REMARK  Name = 
REMARK  8 active torsions:
REMARK  status: ('A' for Active; 'I' for Inactive)
REMARK    1  A    between atoms: C_1  and  C_2
REMARK    2  A    between atoms: C_4  and  C_5
REMARK    3  A    between atoms: C_5  and  S_6
REMARK    4  A    between atoms: S_6  and  C_8
REMARK    5  A    between atoms: C_20  and  C_21
REMARK    6  A    between atoms: C_21  and  C_23
REMARK    7  A    between atoms: C_23  and  C_24
REMARK    8  A    between atoms: C_23  and  C_25
REMARK                            x       y       z     vdW  Elec       q    Type
REMARK                         _______ _______ _______ _____ _____    ______ ____
ROOT
ATOM      1  C   UNL     1     -57.117 -31.667 -61.152  0.00  0.00    +0.000 A 
ATOM      2  N   UNL     1     -55.979 -32.202 -60.557  0.00  0.00    +0.000 N 
ATOM      3  C   UNL     1     -55.207 -33.193 -61.195  0.00  0.00    +0.000 A 
ATOM      4  C   UNL     1     -53.870 -33.447 -60.837  0.00  0.00    +0.000 A 
ATOM      5 BR   UNL     1     -52.972 -32.352 -59.575  0.00  0.00    +0.000 Br
ATOM      6  C   UNL     1     -53.152 -34.488 -61.433  0.00  0.00    +0.000 A 
ATOM      7  C   UNL     1     -53.758 -35.287 -62.398  0.00  0.00    +0.000 A 
ATOM      8  C   UNL     1     -55.092 -35.045 -62.775  0.00  0.00    +0.000 A 
ATOM      9 CL   UNL     1     -55.712 -36.054 -64.032  0.00  0.00    +0.000 Cl
ATOM     10  C   UNL     1     -55.818 -33.999 -62.169  0.00  0.00    +0.000 A 
ATOM     11  C   UNL     1     -57.238 -33.684 -62.474  0.00  0.00    +0.000 A 
ATOM     12  O   UNL     1     -57.976 -34.551 -62.932  0.00  0.00    +0.000 OA
ATOM     13  C   UNL     1     -57.751 -32.276 -62.183  0.00  0.00    +0.000 A 
ATOM     14  H   UNL     1     -55.460 -31.533 -59.971  0.00  0.00    +0.000 HD
ENDROOT
BRANCH   1  15
ATOM     15  S   UNL     1     -57.480 -29.987 -60.517  0.00  0.00    +0.000 S 
ATOM     16  O   UNL     1     -56.119 -29.388 -60.285  0.00  0.00    +0.000 OA
BRANCH  15  17
ATOM     17  C   UNL     1     -58.254 -30.309 -58.897  0.00  0.00    +0.000 C 
BRANCH  17  21
ATOM     18  C   UNL     1     -61.838 -34.037 -59.152  0.00  0.00    +0.000 C 
ATOM     19  C   UNL     1     -60.695 -33.112 -58.984  0.00  0.00    +0.000 A 
ATOM     20  C   UNL     1     -60.402 -31.838 -59.412  0.00  0.00    +0.000 A 
ATOM     21  C   UNL     1     -59.126 -31.542 -58.851  0.00  0.00    +0.000 A 
ATOM     22  N   UNL     1     -58.683 -32.598 -58.147  0.00  0.00    +0.000 NA
ATOM     23  O   UNL     1     -59.663 -33.569 -58.229  0.00  0.00    +0.000 OA
ENDBRANCH  17  21
ENDBRANCH  15  17
ENDBRANCH   1  15
BRANCH  13  24
ATOM     24  C   UNL     1     -58.843 -31.750 -63.087  0.00  0.00    +0.000 C 
ATOM     25  O   UNL     1     -60.015 -32.071 -62.894  0.00  0.00    +0.000 OA
BRANCH  24  26
ATOM     26  C   UNL     1     -58.494 -30.871 -64.288  0.00  0.00    +0.000 C 
ATOM     27  C   UNL     1     -59.397 -31.162 -65.484  0.00  0.00    +0.000 C 
ATOM     28  C   UNL     1     -58.539 -29.381 -63.939  0.00  0.00    +0.000 C 
ENDBRANCH  24  26
ENDBRANCH  13  24
TORSDOF 5
