REMARK VINA RESULT:    -6.866      3.564      5.719
REMARK INTER + INTRA:          -9.706
REMARK INTER:                  -8.856
REMARK INTRA:                  -0.850
REMARK UNBOUND:                -1.235
REMARK  Name = 
REMARK  5 active torsions:
REMARK  status: ('A' for Active; 'I' for Inactive)
REMARK    1  A    between atoms: C_1  and  C_2
REMARK    2  A    between atoms: C_2  and  C_4
REMARK    3  A    between atoms: C_5  and  S_6
REMARK    4  A    between atoms: S_6  and  C_8
REMARK    5  A    between atoms: C_8  and  C_9
REMARK                            x       y       z     vdW  Elec       q    Type
REMARK                         _______ _______ _______ _____ _____    ______ ____
ROOT
ATOM      1  C   UNL     1     -56.818 -40.866 -61.882  0.00  0.00    +0.000 A 
ATOM      2  C   UNL     1     -55.835 -41.586 -62.474  0.00  0.00    +0.000 A 
ATOM      3  N   UNL     1     -54.834 -41.016 -63.240  0.00  0.00    +0.000 N 
ATOM      4  C   UNL     1     -54.810 -39.654 -63.580  0.00  0.00    +0.000 A 
ATOM      5  C   UNL     1     -53.773 -39.126 -64.369  0.00  0.00    +0.000 A 
ATOM      6 BR   UNL     1     -52.409 -40.249 -65.070  0.00  0.00    +0.000 Br
ATOM      7  C   UNL     1     -53.713 -37.766 -64.662  0.00  0.00    +0.000 A 
ATOM      8  C   UNL     1     -54.691 -36.912 -64.160  0.00  0.00    +0.000 A 
ATOM      9  C   UNL     1     -55.720 -37.408 -63.352  0.00  0.00    +0.000 A 
ATOM     10 CL   UNL     1     -56.864 -36.227 -62.813  0.00  0.00    +0.000 Cl
ATOM     11  C   UNL     1     -55.772 -38.783 -63.039  0.00  0.00    +0.000 A 
ATOM     12  C   UNL     1     -56.824 -39.387 -62.175  0.00  0.00    +0.000 A 
ATOM     13  O   UNL     1     -57.723 -38.686 -61.728  0.00  0.00    +0.000 OA
ATOM     14  H   UNL     1     -54.387 -41.645 -63.909  0.00  0.00    +0.000 HD
ENDROOT
BRANCH   1  16
ATOM     15  C   UNL     1     -57.607 -41.677 -59.538  0.00  0.00    +0.000 C 
ATOM     16  C   UNL     1     -57.893 -41.449 -61.006  0.00  0.00    +0.000 C 
ATOM     17  O   UNL     1     -58.992 -41.772 -61.455  0.00  0.00    +0.000 OA
ENDBRANCH   1  16
BRANCH   2  18
ATOM     18  S   UNL     1     -55.838 -43.409 -62.458  0.00  0.00    +0.000 S 
ATOM     19  O   UNL     1     -55.526 -43.763 -63.889  0.00  0.00    +0.000 OA
BRANCH  18  20
ATOM     20  C   UNL     1     -54.289 -43.695 -61.516  0.00  0.00    +0.000 C 
BRANCH  20  21
ATOM     21  C   UNL     1     -53.193 -44.319 -62.352  0.00  0.00    +0.000 A 
ATOM     22  C   UNL     1     -52.293 -43.524 -63.082  0.00  0.00    +0.000 A 
ATOM     23  C   UNL     1     -51.274 -44.108 -63.841  0.00  0.00    +0.000 A 
ATOM     24  C   UNL     1     -51.133 -45.492 -63.874  0.00  0.00    +0.000 A 
ATOM     25  C   UNL     1     -52.008 -46.294 -63.143  0.00  0.00    +0.000 A 
ATOM     26  C   UNL     1     -53.030 -45.713 -62.387  0.00  0.00    +0.000 A 
ENDBRANCH  20  21
ENDBRANCH  18  20
ENDBRANCH   2  18
TORSDOF 4
