REMARK VINA RESULT:    -6.136     11.813     14.669
REMARK INTER + INTRA:          -8.805
REMARK INTER:                  -8.039
REMARK INTRA:                  -0.766
REMARK UNBOUND:                -0.876
REMARK  Name = 
REMARK  6 active torsions:
REMARK  status: ('A' for Active; 'I' for Inactive)
REMARK    1  A    between atoms: C_1  and  C_2
REMARK    2  A    between atoms: C_4  and  C_5
REMARK    3  A    between atoms: C_5  and  S_6
REMARK    4  A    between atoms: S_6  and  C_8
REMARK    5  A    between atoms: C_20  and  C_21
REMARK    6  A    between atoms: C_21  and  C_23
REMARK                            x       y       z     vdW  Elec       q    Type
REMARK                         _______ _______ _______ _____ _____    ______ ____
ROOT
ATOM      1  C   UNL     1     -56.820 -41.021 -61.657  0.00  0.00    +0.000 A 
ATOM      2  N   UNL     1     -56.741 -41.695 -60.423  0.00  0.00    +0.000 N 
ATOM      3  C   UNL     1     -55.727 -42.664 -60.191  0.00  0.00    +0.000 A 
ATOM      4  C   UNL     1     -55.344 -43.081 -58.902  0.00  0.00    +0.000 A 
ATOM      5 BR   UNL     1     -56.039 -42.236 -57.353  0.00  0.00    +0.000 Br
ATOM      6  C   UNL     1     -54.419 -44.118 -58.721  0.00  0.00    +0.000 A 
ATOM      7  C   UNL     1     -53.842 -44.735 -59.837  0.00  0.00    +0.000 A 
ATOM      8  C   UNL     1     -54.205 -44.337 -61.124  0.00  0.00    +0.000 A 
ATOM      9 CL   UNL     1     -53.384 -45.110 -62.432  0.00  0.00    +0.000 Cl
ATOM     10  C   UNL     1     -55.159 -43.322 -61.293  0.00  0.00    +0.000 A 
ATOM     11  C   UNL     1     -55.667 -42.895 -62.610  0.00  0.00    +0.000 A 
ATOM     12  O   UNL     1     -55.741 -43.671 -63.555  0.00  0.00    +0.000 OA
ATOM     13  C   UNL     1     -56.173 -41.490 -62.747  0.00  0.00    +0.000 A 
ATOM     14  H   UNL     1     -56.903 -41.065 -59.625  0.00  0.00    +0.000 HD
ENDROOT
BRANCH   1  15
ATOM     15  S   UNL     1     -57.454 -39.332 -61.490  0.00  0.00    +0.000 S 
ATOM     16  O   UNL     1     -58.581 -39.260 -62.484  0.00  0.00    +0.000 OA
BRANCH  15  17
ATOM     17  C   UNL     1     -56.181 -38.150 -62.024  0.00  0.00    +0.000 C 
BRANCH  17  21
ATOM     18  C   UNL     1     -58.072 -33.460 -62.826  0.00  0.00    +0.000 C 
ATOM     19  C   UNL     1     -57.344 -34.733 -62.673  0.00  0.00    +0.000 A 
ATOM     20  C   UNL     1     -57.645 -35.959 -62.126  0.00  0.00    +0.000 A 
ATOM     21  C   UNL     1     -56.516 -36.760 -62.409  0.00  0.00    +0.000 A 
ATOM     22  N   UNL     1     -55.566 -36.035 -63.025  0.00  0.00    +0.000 NA
ATOM     23  O   UNL     1     -56.090 -34.770 -63.189  0.00  0.00    +0.000 OA
ENDBRANCH  17  21
ENDBRANCH  15  17
ENDBRANCH   1  15
BRANCH  13  24
ATOM     24  C   UNL     1     -55.720 -40.808 -63.994  0.00  0.00    +0.000 C 
ATOM     25  O   UNL     1     -54.551 -40.499 -64.140  0.00  0.00    +0.000 OA
BRANCH  24  26
ATOM     26  C   UNL     1     -56.703 -40.559 -65.065  0.00  0.00    +0.000 C 
ATOM     27  C   UNL     1     -57.904 -41.461 -65.194  0.00  0.00    +0.000 C 
ATOM     28  C   UNL     1     -56.833 -41.497 -66.242  0.00  0.00    +0.000 C 
ENDBRANCH  24  26
ENDBRANCH  13  24
TORSDOF 5
