REMARK  Name = 
REMARK  6 active torsions:
REMARK  status: ('A' for Active; 'I' for Inactive)
REMARK    1  A    between atoms: C_1  and  C_2
REMARK    2  A    between atoms: C_2  and  C_4
REMARK    3  A    between atoms: C_5  and  S_6
REMARK    4  A    between atoms: S_6  and  C_8
REMARK    5  A    between atoms: C_8  and  C_9
REMARK    6  A    between atoms: C_11  and  C_12
REMARK                            x       y       z     vdW  Elec       q    Type
REMARK                         _______ _______ _______ _____ _____    ______ ____
ROOT
ATOM      1  C   UNL     1       3.183  -0.834  -0.914  0.00  0.00    +0.000 A 
ATOM      2  C   UNL     1       2.821  -0.810  -2.216  0.00  0.00    +0.000 A 
ATOM      3  N   UNL     1       3.495  -1.496  -3.208  0.00  0.00    +0.000 N 
ATOM      4  C   UNL     1       4.717  -2.153  -2.981  0.00  0.00    +0.000 A 
ATOM      5  C   UNL     1       5.397  -2.789  -4.035  0.00  0.00    +0.000 A 
ATOM      6 BR   UNL     1       4.737  -2.712  -5.816  0.00  0.00    +0.000 Br
ATOM      7  C   UNL     1       6.580  -3.488  -3.808  0.00  0.00    +0.000 A 
ATOM      8  C   UNL     1       7.090  -3.570  -2.515  0.00  0.00    +0.000 A 
ATOM      9  C   UNL     1       6.421  -2.967  -1.447  0.00  0.00    +0.000 A 
ATOM     10 CL   UNL     1       7.184  -3.146   0.095  0.00  0.00    +0.000 Cl
ATOM     11  C   UNL     1       5.215  -2.270  -1.673  0.00  0.00    +0.000 A 
ATOM     12  C   UNL     1       4.434  -1.605  -0.591  0.00  0.00    +0.000 A 
ATOM     13  O   UNL     1       4.837  -1.651   0.567  0.00  0.00    +0.000 OA
ATOM     14  H   UNL     1       3.370  -1.129  -4.154  0.00  0.00    +0.000 HD
ENDROOT
BRANCH   1  16
ATOM     15  C   UNL     1       2.630  -0.571   1.623  0.00  0.00    +0.000 C 
ATOM     16  C   UNL     1       2.448  -0.116   0.192  0.00  0.00    +0.000 C 
ATOM     17  O   UNL     1       1.693   0.829  -0.040  0.00  0.00    +0.000 OA
ENDBRANCH   1  16
BRANCH   2  18
ATOM     18  S   UNL     1       1.494   0.289  -2.812  0.00  0.00    +0.000 S 
ATOM     19  O   UNL     1       2.180   1.131  -3.855  0.00  0.00    +0.000 OA
BRANCH  18  20
ATOM     20  C   UNL     1       0.482  -0.928  -3.732  0.00  0.00    +0.000 C 
BRANCH  20  21
ATOM     21  C   UNL     1      -0.755  -0.316  -4.306  0.00  0.00    +0.000 A 
ATOM     22  C   UNL     1      -0.954   0.953  -4.911  0.00  0.00    +0.000 A 
ATOM     23  C   UNL     1      -2.286   0.974  -5.244  0.00  0.00    +0.000 A 
ATOM     24  C   UNL     1      -3.188   1.978  -5.839  0.00  0.00    +0.000 C 
ATOM     25  O   UNL     1      -2.844  -0.220  -4.915  0.00  0.00    +0.000 OA
ATOM     26  N   UNL     1      -1.888  -1.034  -4.334  0.00  0.00    +0.000 NA
ENDBRANCH  20  21
ENDBRANCH  18  20
ENDBRANCH   2  18
TORSDOF 4
