REMARK VINA RESULT:    -6.598     14.604     15.816
REMARK INTER + INTRA:          -8.982
REMARK INTER:                  -8.151
REMARK INTRA:                  -0.831
REMARK UNBOUND:                -0.841
REMARK  Name = 
REMARK  6 active torsions:
REMARK  status: ('A' for Active; 'I' for Inactive)
REMARK    1  A    between atoms: C_1  and  C_2
REMARK    2  A    between atoms: C_2  and  C_4
REMARK    3  A    between atoms: C_5  and  S_6
REMARK    4  A    between atoms: S_6  and  C_8
REMARK    5  A    between atoms: C_8  and  C_9
REMARK    6  A    between atoms: C_11  and  C_12
REMARK                            x       y       z     vdW  Elec       q    Type
REMARK                         _______ _______ _______ _____ _____    ______ ____
ROOT
ATOM      1  C   UNL     1     -56.004 -41.758 -77.546  0.00  0.00    +0.000 A 
ATOM      2  C   UNL     1     -54.678 -41.984 -77.418  0.00  0.00    +0.000 A 
ATOM      3  N   UNL     1     -53.802 -42.023 -78.485  0.00  0.00    +0.000 N 
ATOM      4  C   UNL     1     -54.231 -41.977 -79.821  0.00  0.00    +0.000 A 
ATOM      5  C   UNL     1     -53.302 -42.063 -80.877  0.00  0.00    +0.000 A 
ATOM      6 BR   UNL     1     -51.452 -42.317 -80.532  0.00  0.00    +0.000 Br
ATOM      7  C   UNL     1     -53.713 -41.968 -82.202  0.00  0.00    +0.000 A 
ATOM      8  C   UNL     1     -55.062 -41.773 -82.492  0.00  0.00    +0.000 A 
ATOM      9  C   UNL     1     -56.000 -41.658 -81.458  0.00  0.00    +0.000 A 
ATOM     10 CL   UNL     1     -57.634 -41.430 -81.976  0.00  0.00    +0.000 Cl
ATOM     11  C   UNL     1     -55.584 -41.740 -80.114  0.00  0.00    +0.000 A 
ATOM     12  C   UNL     1     -56.518 -41.619 -78.956  0.00  0.00    +0.000 A 
ATOM     13  O   UNL     1     -57.716 -41.448 -79.152  0.00  0.00    +0.000 OA
ATOM     14  H   UNL     1     -52.938 -42.543 -78.322  0.00  0.00    +0.000 HD
ENDROOT
BRANCH   1  16
ATOM     15  C   UNL     1     -57.360 -40.323 -75.846  0.00  0.00    +0.000 C 
ATOM     16  C   UNL     1     -56.971 -41.679 -76.393  0.00  0.00    +0.000 C 
ATOM     17  O   UNL     1     -57.453 -42.687 -75.883  0.00  0.00    +0.000 OA
ENDBRANCH   1  16
BRANCH   2  18
ATOM     18  S   UNL     1     -53.941 -42.424 -75.808  0.00  0.00    +0.000 S 
ATOM     19  O   UNL     1     -54.351 -43.861 -75.620  0.00  0.00    +0.000 OA
BRANCH  18  20
ATOM     20  C   UNL     1     -52.178 -42.462 -76.292  0.00  0.00    +0.000 C 
BRANCH  20  21
ATOM     21  C   UNL     1     -51.496 -41.154 -76.057  0.00  0.00    +0.000 A 
ATOM     22  C   UNL     1     -50.239 -40.872 -75.462  0.00  0.00    +0.000 A 
ATOM     23  C   UNL     1     -50.130 -39.503 -75.514  0.00  0.00    +0.000 A 
ATOM     24  C   UNL     1     -49.133 -38.527 -75.040  0.00  0.00    +0.000 C 
ATOM     25  O   UNL     1     -51.221 -38.995 -76.142  0.00  0.00    +0.000 OA
ATOM     26  N   UNL     1     -52.077 -40.025 -76.492  0.00  0.00    +0.000 NA
ENDBRANCH  20  21
ENDBRANCH  18  20
ENDBRANCH   2  18
TORSDOF 4
