REMARK VINA RESULT:    -5.600      5.496      8.099
REMARK INTER + INTRA:          -8.154
REMARK INTER:                  -7.167
REMARK INTRA:                  -0.986
REMARK UNBOUND:                -0.917
REMARK  Name = 
REMARK  6 active torsions:
REMARK  status: ('A' for Active; 'I' for Inactive)
REMARK    1  A    between atoms: C_1  and  C_2
REMARK    2  A    between atoms: C_4  and  C_5
REMARK    3  A    between atoms: C_5  and  S_6
REMARK    4  A    between atoms: S_6  and  C_8
REMARK    5  A    between atoms: C_20  and  C_21
REMARK    6  A    between atoms: C_21  and  C_23
REMARK                            x       y       z     vdW  Elec       q    Type
REMARK                         _______ _______ _______ _____ _____    ______ ____
ROOT
ATOM      1  C   UNL     1     -58.146 -45.110 -77.949  0.00  0.00    +0.000 A 
ATOM      2  N   UNL     1     -59.516 -44.875 -78.173  0.00  0.00    +0.000 N 
ATOM      3  C   UNL     1     -60.382 -45.940 -78.543  0.00  0.00    +0.000 A 
ATOM      4  C   UNL     1     -61.782 -45.876 -78.404  0.00  0.00    +0.000 A 
ATOM      5 BR   UNL     1     -62.612 -44.409 -77.534  0.00  0.00    +0.000 Br
ATOM      6  C   UNL     1     -62.606 -46.904 -78.882  0.00  0.00    +0.000 A 
ATOM      7  C   UNL     1     -62.031 -48.029 -79.484  0.00  0.00    +0.000 A 
ATOM      8  C   UNL     1     -60.647 -48.116 -79.632  0.00  0.00    +0.000 A 
ATOM      9 CL   UNL     1     -60.033 -49.575 -80.322  0.00  0.00    +0.000 Cl
ATOM     10  C   UNL     1     -59.835 -47.064 -79.181  0.00  0.00    +0.000 A 
ATOM     11  C   UNL     1     -58.372 -47.029 -79.370  0.00  0.00    +0.000 A 
ATOM     12  O   UNL     1     -57.832 -47.564 -80.330  0.00  0.00    +0.000 OA
ATOM     13  C   UNL     1     -57.554 -46.244 -78.387  0.00  0.00    +0.000 A 
ATOM     14  H   UNL     1     -59.920 -44.235 -77.476  0.00  0.00    +0.000 HD
ENDROOT
BRANCH   1  15
ATOM     15  S   UNL     1     -57.447 -44.011 -76.690  0.00  0.00    +0.000 S 
ATOM     16  O   UNL     1     -58.339 -42.800 -76.721  0.00  0.00    +0.000 OA
BRANCH  15  17
ATOM     17  C   UNL     1     -55.788 -43.477 -77.203  0.00  0.00    +0.000 C 
BRANCH  17  21
ATOM     18  C   UNL     1     -51.849 -44.556 -74.115  0.00  0.00    +0.000 C 
ATOM     19  C   UNL     1     -52.906 -44.047 -75.009  0.00  0.00    +0.000 A 
ATOM     20  C   UNL     1     -53.955 -44.618 -75.689  0.00  0.00    +0.000 A 
ATOM     21  C   UNL     1     -54.629 -43.528 -76.282  0.00  0.00    +0.000 A 
ATOM     22  N   UNL     1     -53.979 -42.378 -76.030  0.00  0.00    +0.000 NA
ATOM     23  O   UNL     1     -52.904 -42.709 -75.232  0.00  0.00    +0.000 OA
ENDBRANCH  17  21
ENDBRANCH  15  17
ENDBRANCH   1  15
BRANCH  13  24
ATOM     24  C   UNL     1     -56.316 -46.945 -77.943  0.00  0.00    +0.000 C 
ATOM     25  O   UNL     1     -55.232 -46.643 -78.411  0.00  0.00    +0.000 OA
BRANCH  24  26
ATOM     26  C   UNL     1     -56.420 -47.975 -76.892  0.00  0.00    +0.000 C 
ATOM     27  C   UNL     1     -55.231 -48.852 -76.595  0.00  0.00    +0.000 C 
ATOM     28  C   UNL     1     -56.447 -49.445 -77.238  0.00  0.00    +0.000 C 
ENDBRANCH  24  26
ENDBRANCH  13  24
TORSDOF 5
