REMARK VINA RESULT:    -6.084     22.379     25.850
REMARK INTER + INTRA:          -8.713
REMARK INTER:                  -7.891
REMARK INTRA:                  -0.822
REMARK UNBOUND:                -0.850
REMARK  Name = 
REMARK  6 active torsions:
REMARK  status: ('A' for Active; 'I' for Inactive)
REMARK    1  A    between atoms: C_1  and  C_2
REMARK    2  A    between atoms: C_4  and  C_5
REMARK    3  A    between atoms: C_5  and  S_6
REMARK    4  A    between atoms: S_6  and  C_8
REMARK    5  A    between atoms: C_20  and  C_21
REMARK    6  A    between atoms: C_21  and  C_23
REMARK                            x       y       z     vdW  Elec       q    Type
REMARK                         _______ _______ _______ _____ _____    ______ ____
ROOT
ATOM      1  C   UNL     1     -66.771 -49.552 -54.491  0.00  0.00    +0.000 A 
ATOM      2  N   UNL     1     -67.486 -50.472 -55.283  0.00  0.00    +0.000 N 
ATOM      3  C   UNL     1     -67.805 -51.763 -54.782  0.00  0.00    +0.000 A 
ATOM      4  C   UNL     1     -68.819 -52.571 -55.330  0.00  0.00    +0.000 A 
ATOM      5 BR   UNL     1     -69.970 -51.911 -56.686  0.00  0.00    +0.000 Br
ATOM      6  C   UNL     1     -69.028 -53.881 -54.877  0.00  0.00    +0.000 A 
ATOM      7  C   UNL     1     -68.234 -54.390 -53.842  0.00  0.00    +0.000 A 
ATOM      8  C   UNL     1     -67.224 -53.608 -53.281  0.00  0.00    +0.000 A 
ATOM      9 CL   UNL     1     -66.351 -54.301 -51.963  0.00  0.00    +0.000 Cl
ATOM     10  C   UNL     1     -67.002 -52.311 -53.769  0.00  0.00    +0.000 A 
ATOM     11  C   UNL     1     -65.905 -51.443 -53.298  0.00  0.00    +0.000 A 
ATOM     12  O   UNL     1     -64.844 -51.905 -52.898  0.00  0.00    +0.000 OA
ATOM     13  C   UNL     1     -66.093 -49.958 -53.396  0.00  0.00    +0.000 A 
ATOM     14  H   UNL     1     -68.256 -50.026 -55.799  0.00  0.00    +0.000 HD
ENDROOT
BRANCH   1  15
ATOM     15  S   UNL     1     -67.235 -47.833 -54.831  0.00  0.00    +0.000 S 
ATOM     16  O   UNL     1     -68.534 -47.649 -54.096  0.00  0.00    +0.000 OA
BRANCH  15  17
ATOM     17  C   UNL     1     -67.581 -47.638 -56.604  0.00  0.00    +0.000 C 
BRANCH  17  21
ATOM     18  C   UNL     1     -64.452 -47.537 -60.655  0.00  0.00    +0.000 C 
ATOM     19  C   UNL     1     -65.209 -47.441 -59.394  0.00  0.00    +0.000 A 
ATOM     20  C   UNL     1     -66.443 -47.876 -58.971  0.00  0.00    +0.000 A 
ATOM     21  C   UNL     1     -66.497 -47.519 -57.605  0.00  0.00    +0.000 A 
ATOM     22  N   UNL     1     -65.388 -46.846 -57.250  0.00  0.00    +0.000 NA
ATOM     23  O   UNL     1     -64.587 -46.801 -58.372  0.00  0.00    +0.000 OA
ENDBRANCH  17  21
ENDBRANCH  15  17
ENDBRANCH   1  15
BRANCH  13  24
ATOM     24  C   UNL     1     -65.647 -49.217 -52.181  0.00  0.00    +0.000 C 
ATOM     25  O   UNL     1     -66.361 -49.157 -51.195  0.00  0.00    +0.000 OA
BRANCH  24  26
ATOM     26  C   UNL     1     -64.308 -48.598 -52.177  0.00  0.00    +0.000 C 
ATOM     27  C   UNL     1     -64.013 -47.475 -51.217  0.00  0.00    +0.000 C 
ATOM     28  C   UNL     1     -64.093 -47.193 -52.686  0.00  0.00    +0.000 C 
ENDBRANCH  24  26
ENDBRANCH  13  24
TORSDOF 5
