REMARK VINA RESULT:    -5.398     14.343     17.255
REMARK INTER + INTRA:          -8.017
REMARK INTER:                  -6.963
REMARK INTRA:                  -1.054
REMARK UNBOUND:                -1.042
REMARK  Name = 
REMARK  8 active torsions:
REMARK  status: ('A' for Active; 'I' for Inactive)
REMARK    1  A    between atoms: C_1  and  C_2
REMARK    2  A    between atoms: C_4  and  C_5
REMARK    3  A    between atoms: C_5  and  S_6
REMARK    4  A    between atoms: S_6  and  C_8
REMARK    5  A    between atoms: C_20  and  C_21
REMARK    6  A    between atoms: C_21  and  C_23
REMARK    7  A    between atoms: C_23  and  C_24
REMARK    8  A    between atoms: C_23  and  C_25
REMARK                            x       y       z     vdW  Elec       q    Type
REMARK                         _______ _______ _______ _____ _____    ______ ____
ROOT
ATOM      1  C   UNL     1     -58.078 -42.161 -80.618  0.00  0.00    +0.000 A 
ATOM      2  N   UNL     1     -57.979 -42.134 -79.230  0.00  0.00    +0.000 N 
ATOM      3  C   UNL     1     -56.847 -41.605 -78.580  0.00  0.00    +0.000 A 
ATOM      4  C   UNL     1     -56.882 -41.183 -77.238  0.00  0.00    +0.000 A 
ATOM      5 BR   UNL     1     -58.512 -41.151 -76.268  0.00  0.00    +0.000 Br
ATOM      6  C   UNL     1     -55.725 -40.735 -76.594  0.00  0.00    +0.000 A 
ATOM      7  C   UNL     1     -54.517 -40.697 -77.284  0.00  0.00    +0.000 A 
ATOM      8  C   UNL     1     -54.461 -41.108 -78.629  0.00  0.00    +0.000 A 
ATOM      9 CL   UNL     1     -52.924 -40.949 -79.400  0.00  0.00    +0.000 Cl
ATOM     10  C   UNL     1     -55.627 -41.566 -79.276  0.00  0.00    +0.000 A 
ATOM     11  C   UNL     1     -55.667 -42.051 -80.680  0.00  0.00    +0.000 A 
ATOM     12  O   UNL     1     -54.647 -42.481 -81.211  0.00  0.00    +0.000 OA
ATOM     13  C   UNL     1     -56.999 -42.021 -81.424  0.00  0.00    +0.000 A 
ATOM     14  H   UNL     1     -58.880 -41.998 -78.750  0.00  0.00    +0.000 HD
ENDROOT
BRANCH   1  15
ATOM     15  S   UNL     1     -59.826 -42.188 -81.167  0.00  0.00    +0.000 S 
ATOM     16  O   UNL     1     -59.819 -43.124 -82.344  0.00  0.00    +0.000 OA
BRANCH  15  17
ATOM     17  C   UNL     1     -60.098 -40.491 -81.779  0.00  0.00    +0.000 C 
BRANCH  17  21
ATOM     18  C   UNL     1     -62.063 -36.656 -78.909  0.00  0.00    +0.000 C 
ATOM     19  C   UNL     1     -61.472 -37.852 -79.550  0.00  0.00    +0.000 A 
ATOM     20  C   UNL     1     -61.298 -38.276 -80.847  0.00  0.00    +0.000 A 
ATOM     21  C   UNL     1     -60.620 -39.524 -80.742  0.00  0.00    +0.000 A 
ATOM     22  N   UNL     1     -60.425 -39.828 -79.447  0.00  0.00    +0.000 NA
ATOM     23  O   UNL     1     -60.953 -38.784 -78.711  0.00  0.00    +0.000 OA
ENDBRANCH  17  21
ENDBRANCH  15  17
ENDBRANCH   1  15
BRANCH  13  24
ATOM     24  C   UNL     1     -56.936 -41.803 -82.920  0.00  0.00    +0.000 C 
ATOM     25  O   UNL     1     -57.092 -42.750 -83.690  0.00  0.00    +0.000 OA
BRANCH  24  26
ATOM     26  C   UNL     1     -56.613 -40.420 -83.486  0.00  0.00    +0.000 C 
ATOM     27  C   UNL     1     -55.229 -40.381 -84.129  0.00  0.00    +0.000 C 
ATOM     28  C   UNL     1     -57.675 -39.948 -84.483  0.00  0.00    +0.000 C 
ENDBRANCH  24  26
ENDBRANCH  13  24
TORSDOF 5
