REMARK VINA RESULT:    -6.897      0.000      0.000
REMARK INTER + INTRA:          -9.481
REMARK INTER:                  -8.510
REMARK INTRA:                  -0.971
REMARK UNBOUND:                -0.971
REMARK  Name = 
REMARK  6 active torsions:
REMARK  status: ('A' for Active; 'I' for Inactive)
REMARK    1  A    between atoms: C_1  and  C_2
REMARK    2  A    between atoms: C_2  and  C_4
REMARK    3  A    between atoms: C_5  and  S_6
REMARK    4  A    between atoms: S_6  and  C_8
REMARK    5  A    between atoms: C_8  and  C_9
REMARK    6  A    between atoms: C_11  and  C_12
REMARK                            x       y       z     vdW  Elec       q    Type
REMARK                         _______ _______ _______ _____ _____    ______ ____
ROOT
ATOM      1  C   UNL     1     -55.927 -42.506 -62.750  0.00  0.00    +0.000 A 
ATOM      2  C   UNL     1     -55.613 -41.337 -63.351  0.00  0.00    +0.000 A 
ATOM      3  N   UNL     1     -54.386 -41.089 -63.936  0.00  0.00    +0.000 N 
ATOM      4  C   UNL     1     -53.309 -41.990 -63.865  0.00  0.00    +0.000 A 
ATOM      5  C   UNL     1     -52.087 -41.701 -64.501  0.00  0.00    +0.000 A 
ATOM      6 BR   UNL     1     -51.828 -40.060 -65.424  0.00  0.00    +0.000 Br
ATOM      7  C   UNL     1     -51.033 -42.610 -64.478  0.00  0.00    +0.000 A 
ATOM      8  C   UNL     1     -51.191 -43.826 -63.818  0.00  0.00    +0.000 A 
ATOM      9  C   UNL     1     -52.405 -44.149 -63.201  0.00  0.00    +0.000 A 
ATOM     10 CL   UNL     1     -52.446 -45.691 -62.421  0.00  0.00    +0.000 Cl
ATOM     11  C   UNL     1     -53.482 -43.240 -63.246  0.00  0.00    +0.000 A 
ATOM     12  C   UNL     1     -54.815 -43.516 -62.639  0.00  0.00    +0.000 A 
ATOM     13  O   UNL     1     -55.000 -44.551 -62.011  0.00  0.00    +0.000 OA
ATOM     14  H   UNL     1     -54.134 -40.106 -64.037  0.00  0.00    +0.000 HD
ENDROOT
BRANCH   1  16
ATOM     15  C   UNL     1     -58.321 -43.465 -63.060  0.00  0.00    +0.000 C 
ATOM     16  C   UNL     1     -57.276 -42.833 -62.167  0.00  0.00    +0.000 C 
ATOM     17  O   UNL     1     -57.559 -42.571 -60.998  0.00  0.00    +0.000 OA
ENDBRANCH   1  16
BRANCH   2  18
ATOM     18  S   UNL     1     -56.746 -39.909 -63.297  0.00  0.00    +0.000 S 
ATOM     19  O   UNL     1     -56.472 -39.298 -61.949  0.00  0.00    +0.000 OA
BRANCH  18  20
ATOM     20  C   UNL     1     -55.920 -38.827 -64.518  0.00  0.00    +0.000 C 
BRANCH  20  21
ATOM     21  C   UNL     1     -55.234 -37.676 -63.860  0.00  0.00    +0.000 A 
ATOM     22  C   UNL     1     -55.724 -36.367 -63.608  0.00  0.00    +0.000 A 
ATOM     23  C   UNL     1     -54.710 -35.744 -62.923  0.00  0.00    +0.000 A 
ATOM     24  C   UNL     1     -54.522 -34.397 -62.351  0.00  0.00    +0.000 C 
ATOM     25  O   UNL     1     -53.680 -36.617 -62.766  0.00  0.00    +0.000 OA
ATOM     26  N   UNL     1     -54.007 -37.831 -63.347  0.00  0.00    +0.000 NA
ENDBRANCH  20  21
ENDBRANCH  18  20
ENDBRANCH   2  18
TORSDOF 4
