REMARK VINA RESULT:    -6.579      2.200      4.085
REMARK INTER + INTRA:          -9.556
REMARK INTER:                  -8.059
REMARK INTRA:                  -1.497
REMARK UNBOUND:                -1.054
REMARK  Name = 
REMARK  8 active torsions:
REMARK  status: ('A' for Active; 'I' for Inactive)
REMARK    1  A    between atoms: C_1  and  C_2
REMARK    2  A    between atoms: C_4  and  C_5
REMARK    3  A    between atoms: C_5  and  S_6
REMARK    4  A    between atoms: S_6  and  C_8
REMARK    5  A    between atoms: C_20  and  C_21
REMARK    6  A    between atoms: C_21  and  C_23
REMARK    7  A    between atoms: C_23  and  C_24
REMARK    8  A    between atoms: C_23  and  C_25
REMARK                            x       y       z     vdW  Elec       q    Type
REMARK                         _______ _______ _______ _____ _____    ______ ____
ROOT
ATOM      1  C   UNL     1     -55.955 -42.102 -77.720  0.00  0.00    +0.000 A 
ATOM      2  N   UNL     1     -55.105 -41.041 -77.422  0.00  0.00    +0.000 N 
ATOM      3  C   UNL     1     -53.829 -41.251 -76.864  0.00  0.00    +0.000 A 
ATOM      4  C   UNL     1     -52.810 -40.283 -76.938  0.00  0.00    +0.000 A 
ATOM      5 BR   UNL     1     -53.048 -38.692 -77.944  0.00  0.00    +0.000 Br
ATOM      6  C   UNL     1     -51.579 -40.485 -76.308  0.00  0.00    +0.000 A 
ATOM      7  C   UNL     1     -51.347 -41.659 -75.599  0.00  0.00    +0.000 A 
ATOM      8  C   UNL     1     -52.349 -42.643 -75.518  0.00  0.00    +0.000 A 
ATOM      9 CL   UNL     1     -51.919 -44.086 -74.673  0.00  0.00    +0.000 Cl
ATOM     10  C   UNL     1     -53.594 -42.436 -76.148  0.00  0.00    +0.000 A 
ATOM     11  C   UNL     1     -54.726 -43.397 -76.095  0.00  0.00    +0.000 A 
ATOM     12  O   UNL     1     -54.806 -44.203 -75.173  0.00  0.00    +0.000 OA
ATOM     13  C   UNL     1     -55.784 -43.338 -77.193  0.00  0.00    +0.000 A 
ATOM     14  H   UNL     1     -55.190 -40.245 -78.069  0.00  0.00    +0.000 HD
ENDROOT
BRANCH   1  15
ATOM     15  S   UNL     1     -57.146 -41.659 -79.040  0.00  0.00    +0.000 S 
ATOM     16  O   UNL     1     -58.413 -42.359 -78.631  0.00  0.00    +0.000 OA
BRANCH  15  17
ATOM     17  C   UNL     1     -56.471 -42.499 -80.513  0.00  0.00    +0.000 C 
BRANCH  17  21
ATOM     18  C   UNL     1     -51.368 -42.635 -81.375  0.00  0.00    +0.000 C 
ATOM     19  C   UNL     1     -52.803 -42.391 -81.112  0.00  0.00    +0.000 A 
ATOM     20  C   UNL     1     -53.941 -43.166 -81.119  0.00  0.00    +0.000 A 
ATOM     21  C   UNL     1     -54.992 -42.284 -80.737  0.00  0.00    +0.000 A 
ATOM     22  N   UNL     1     -54.500 -41.049 -80.536  0.00  0.00    +0.000 NA
ATOM     23  O   UNL     1     -53.140 -41.122 -80.767  0.00  0.00    +0.000 OA
ENDBRANCH  17  21
ENDBRANCH  15  17
ENDBRANCH   1  15
BRANCH  13  24
ATOM     24  C   UNL     1     -56.453 -44.643 -77.563  0.00  0.00    +0.000 C 
ATOM     25  O   UNL     1     -57.521 -44.961 -77.041  0.00  0.00    +0.000 OA
BRANCH  24  26
ATOM     26  C   UNL     1     -55.776 -45.610 -78.536  0.00  0.00    +0.000 C 
ATOM     27  C   UNL     1     -55.164 -46.806 -77.812  0.00  0.00    +0.000 C 
ATOM     28  C   UNL     1     -56.736 -46.086 -79.629  0.00  0.00    +0.000 C 
ENDBRANCH  24  26
ENDBRANCH  13  24
TORSDOF 5
