REMARK VINA RESULT:    -5.268     26.309     27.993
REMARK INTER + INTRA:          -7.219
REMARK INTER:                  -6.223
REMARK INTRA:                  -0.997
REMARK UNBOUND:                -0.720
REMARK  Name = 
REMARK  6 active torsions:
REMARK  status: ('A' for Active; 'I' for Inactive)
REMARK    1  A    between atoms: C_1  and  C_2
REMARK    2  A    between atoms: C_2  and  C_4
REMARK    3  A    between atoms: C_5  and  S_6
REMARK    4  A    between atoms: S_6  and  C_8
REMARK    5  A    between atoms: C_8  and  C_9
REMARK    6  A    between atoms: C_11  and  C_12
REMARK                            x       y       z     vdW  Elec       q    Type
REMARK                         _______ _______ _______ _____ _____    ______ ____
ROOT
ATOM      1  C   UNL     1     -66.403 -52.148 -53.057  0.00  0.00    +0.000 A 
ATOM      2  C   UNL     1     -67.344 -52.140 -54.033  0.00  0.00    +0.000 A 
ATOM      3  N   UNL     1     -67.460 -51.122 -54.962  0.00  0.00    +0.000 N 
ATOM      4  C   UNL     1     -66.716 -49.930 -54.886  0.00  0.00    +0.000 A 
ATOM      5  C   UNL     1     -66.912 -48.891 -55.810  0.00  0.00    +0.000 A 
ATOM      6 BR   UNL     1     -68.267 -49.009 -57.138  0.00  0.00    +0.000 Br
ATOM      7  C   UNL     1     -66.129 -47.736 -55.776  0.00  0.00    +0.000 A 
ATOM      8  C   UNL     1     -65.129 -47.612 -54.815  0.00  0.00    +0.000 A 
ATOM      9  C   UNL     1     -64.907 -48.633 -53.890  0.00  0.00    +0.000 A 
ATOM     10 CL   UNL     1     -63.641 -48.322 -52.752  0.00  0.00    +0.000 Cl
ATOM     11  C   UNL     1     -65.694 -49.804 -53.932  0.00  0.00    +0.000 A 
ATOM     12  C   UNL     1     -65.516 -50.931 -52.983  0.00  0.00    +0.000 A 
ATOM     13  O   UNL     1     -64.663 -50.852 -52.102  0.00  0.00    +0.000 OA
ATOM     14  H   UNL     1     -68.349 -51.062 -55.457  0.00  0.00    +0.000 HD
ENDROOT
BRANCH   1  16
ATOM     15  C   UNL     1     -66.827 -53.114 -50.676  0.00  0.00    +0.000 C 
ATOM     16  C   UNL     1     -66.206 -53.249 -52.049  0.00  0.00    +0.000 C 
ATOM     17  O   UNL     1     -65.537 -54.256 -52.308  0.00  0.00    +0.000 OA
ENDBRANCH   1  16
BRANCH   2  18
ATOM     18  S   UNL     1     -68.647 -53.420 -54.095  0.00  0.00    +0.000 S 
ATOM     19  O   UNL     1     -69.502 -53.121 -52.894  0.00  0.00    +0.000 OA
BRANCH  18  20
ATOM     20  C   UNL     1     -69.596 -52.839 -55.546  0.00  0.00    +0.000 C 
BRANCH  20  21
ATOM     21  C   UNL     1     -70.803 -52.038 -55.168  0.00  0.00    +0.000 A 
ATOM     22  C   UNL     1     -72.155 -52.437 -54.993  0.00  0.00    +0.000 A 
ATOM     23  C   UNL     1     -72.817 -51.291 -54.632  0.00  0.00    +0.000 A 
ATOM     24  C   UNL     1     -74.224 -50.951 -54.342  0.00  0.00    +0.000 C 
ATOM     25  O   UNL     1     -71.920 -50.272 -54.547  0.00  0.00    +0.000 OA
ATOM     26  N   UNL     1     -70.659 -50.736 -54.873  0.00  0.00    +0.000 NA
ENDBRANCH  20  21
ENDBRANCH  18  20
ENDBRANCH   2  18
TORSDOF 4
