REMARK VINA RESULT:    -6.633      3.234      5.579
REMARK INTER + INTRA:          -9.513
REMARK INTER:                  -8.619
REMARK INTRA:                  -0.894
REMARK UNBOUND:                -0.942
REMARK  Name = 
REMARK  8 active torsions:
REMARK  status: ('A' for Active; 'I' for Inactive)
REMARK    1  A    between atoms: C_1  and  C_2
REMARK    2  A    between atoms: C_4  and  C_5
REMARK    3  A    between atoms: C_5  and  S_6
REMARK    4  A    between atoms: S_6  and  C_8
REMARK    5  A    between atoms: C_20  and  C_21
REMARK    6  A    between atoms: C_21  and  C_23
REMARK    7  A    between atoms: C_23  and  C_24
REMARK    8  A    between atoms: C_23  and  C_25
REMARK                            x       y       z     vdW  Elec       q    Type
REMARK                         _______ _______ _______ _____ _____    ______ ____
ROOT
ATOM      1  C   UNL     1     -57.773 -40.673 -63.030  0.00  0.00    +0.000 A 
ATOM      2  N   UNL     1     -57.247 -39.450 -62.621  0.00  0.00    +0.000 N 
ATOM      3  C   UNL     1     -56.109 -38.890 -63.238  0.00  0.00    +0.000 A 
ATOM      4  C   UNL     1     -55.793 -37.522 -63.122  0.00  0.00    +0.000 A 
ATOM      5 CL   UNL     1     -56.881 -36.426 -62.347  0.00  0.00    +0.000 Cl
ATOM      6  C   UNL     1     -54.608 -37.010 -63.653  0.00  0.00    +0.000 A 
ATOM      7  C   UNL     1     -53.722 -37.865 -64.312  0.00  0.00    +0.000 A 
ATOM      8  C   UNL     1     -54.025 -39.225 -64.450  0.00  0.00    +0.000 A 
ATOM      9 CL   UNL     1     -52.886 -40.166 -65.342  0.00  0.00    +0.000 Cl
ATOM     10  C   UNL     1     -55.212 -39.737 -63.902  0.00  0.00    +0.000 A 
ATOM     11  C   UNL     1     -55.597 -41.171 -63.918  0.00  0.00    +0.000 A 
ATOM     12  O   UNL     1     -54.720 -42.026 -63.954  0.00  0.00    +0.000 OA
ATOM     13  C   UNL     1     -57.068 -41.550 -63.799  0.00  0.00    +0.000 A 
ATOM     14  H   UNL     1     -57.962 -38.775 -62.319  0.00  0.00    +0.000 HD
ENDROOT
BRANCH   1  15
ATOM     15  S   UNL     1     -59.559 -40.799 -62.613  0.00  0.00    +0.000 S 
ATOM     16  O   UNL     1     -59.978 -39.370 -62.404  0.00  0.00    +0.000 OA
BRANCH  15  17
ATOM     17  C   UNL     1     -59.536 -41.614 -60.964  0.00  0.00    +0.000 C 
BRANCH  17  21
ATOM     18  C   UNL     1     -61.475 -46.400 -61.232  0.00  0.00    +0.000 C 
ATOM     19  C   UNL     1     -61.089 -44.985 -61.044  0.00  0.00    +0.000 A 
ATOM     20  C   UNL     1     -59.958 -44.242 -61.287  0.00  0.00    +0.000 A 
ATOM     21  C   UNL     1     -60.299 -42.913 -60.905  0.00  0.00    +0.000 A 
ATOM     22  N   UNL     1     -61.556 -42.883 -60.430  0.00  0.00    +0.000 NA
ATOM     23  O   UNL     1     -62.045 -44.171 -60.524  0.00  0.00    +0.000 OA
ENDBRANCH  17  21
ENDBRANCH  15  17
ENDBRANCH   1  15
BRANCH  13  24
ATOM     24  C   UNL     1     -57.466 -42.797 -64.562  0.00  0.00    +0.000 C 
ATOM     25  O   UNL     1     -57.441 -43.898 -63.997  0.00  0.00    +0.000 OA
BRANCH  24  26
ATOM     26  C   UNL     1     -57.755 -42.777 -66.051  0.00  0.00    +0.000 C 
ATOM     27  C   UNL     1     -57.832 -44.198 -66.577  0.00  0.00    +0.000 C 
ATOM     28  C   UNL     1     -58.986 -41.939 -66.375  0.00  0.00    +0.000 C 
ENDBRANCH  24  26
ENDBRANCH  13  24
TORSDOF 5
