REMARK VINA RESULT:    -6.579      3.408      5.610
REMARK INTER + INTRA:          -9.376
REMARK INTER:                  -8.551
REMARK INTRA:                  -0.825
REMARK UNBOUND:                -0.874
REMARK  Name = 
REMARK  8 active torsions:
REMARK  status: ('A' for Active; 'I' for Inactive)
REMARK    1  A    between atoms: C_1  and  C_2
REMARK    2  A    between atoms: C_4  and  C_5
REMARK    3  A    between atoms: C_5  and  S_6
REMARK    4  A    between atoms: S_6  and  C_8
REMARK    5  A    between atoms: C_20  and  C_21
REMARK    6  A    between atoms: C_21  and  C_23
REMARK    7  A    between atoms: C_23  and  C_24
REMARK    8  A    between atoms: C_23  and  C_25
REMARK                            x       y       z     vdW  Elec       q    Type
REMARK                         _______ _______ _______ _____ _____    ______ ____
ROOT
ATOM      1  C   UNL     1     -57.872 -43.145 -76.982  0.00  0.00    +0.000 A 
ATOM      2  N   UNL     1     -57.403 -44.373 -77.439  0.00  0.00    +0.000 N 
ATOM      3  C   UNL     1     -56.295 -45.008 -76.844  0.00  0.00    +0.000 A 
ATOM      4  C   UNL     1     -56.058 -46.388 -76.986  0.00  0.00    +0.000 A 
ATOM      5 BR   UNL     1     -57.315 -47.510 -77.857  0.00  0.00    +0.000 Br
ATOM      6  C   UNL     1     -54.909 -46.979 -76.451  0.00  0.00    +0.000 A 
ATOM      7  C   UNL     1     -53.984 -46.199 -75.763  0.00  0.00    +0.000 A 
ATOM      8  C   UNL     1     -54.206 -44.819 -75.604  0.00  0.00    +0.000 A 
ATOM      9 CL   UNL     1     -53.026 -43.971 -74.671  0.00  0.00    +0.000 Cl
ATOM     10  C   UNL     1     -55.361 -44.222 -76.149  0.00  0.00    +0.000 A 
ATOM     11  C   UNL     1     -55.671 -42.772 -76.065  0.00  0.00    +0.000 A 
ATOM     12  O   UNL     1     -54.766 -41.959 -75.903  0.00  0.00    +0.000 OA
ATOM     13  C   UNL     1     -57.124 -42.327 -76.205  0.00  0.00    +0.000 A 
ATOM     14  H   UNL     1     -58.142 -44.995 -77.797  0.00  0.00    +0.000 HD
ENDROOT
BRANCH   1  15
ATOM     15  S   UNL     1     -59.645 -42.912 -77.382  0.00  0.00    +0.000 S 
ATOM     16  O   UNL     1     -60.160 -44.315 -77.563  0.00  0.00    +0.000 OA
BRANCH  15  17
ATOM     17  C   UNL     1     -59.604 -42.097 -79.014  0.00  0.00    +0.000 C 
BRANCH  17  21
ATOM     18  C   UNL     1     -61.732 -37.382 -78.821  0.00  0.00    +0.000 C 
ATOM     19  C   UNL     1     -61.288 -38.783 -78.991  0.00  0.00    +0.000 A 
ATOM     20  C   UNL     1     -60.152 -39.490 -78.670  0.00  0.00    +0.000 A 
ATOM     21  C   UNL     1     -60.411 -40.823 -79.101  0.00  0.00    +0.000 A 
ATOM     22  N   UNL     1     -61.629 -40.890 -79.667  0.00  0.00    +0.000 NA
ATOM     23  O   UNL     1     -62.170 -39.621 -79.593  0.00  0.00    +0.000 OA
ENDBRANCH  17  21
ENDBRANCH  15  17
ENDBRANCH   1  15
BRANCH  13  24
ATOM     24  C   UNL     1     -57.531 -41.086 -75.442  0.00  0.00    +0.000 C 
ATOM     25  O   UNL     1     -57.485 -39.983 -75.986  0.00  0.00    +0.000 OA
BRANCH  24  26
ATOM     26  C   UNL     1     -57.939 -41.181 -73.972  0.00  0.00    +0.000 C 
ATOM     27  C   UNL     1     -59.012 -42.244 -73.750  0.00  0.00    +0.000 C 
ATOM     28  C   UNL     1     -56.737 -41.442 -73.060  0.00  0.00    +0.000 C 
ENDBRANCH  24  26
ENDBRANCH  13  24
TORSDOF 5
