REMARK VINA RESULT:    -5.359     12.201     14.079
REMARK INTER + INTRA:          -7.292
REMARK INTER:                  -6.202
REMARK INTRA:                  -1.091
REMARK UNBOUND:                -0.681
REMARK  Name = 
REMARK  6 active torsions:
REMARK  status: ('A' for Active; 'I' for Inactive)
REMARK    1  A    between atoms: C_1  and  C_2
REMARK    2  A    between atoms: C_2  and  C_4
REMARK    3  A    between atoms: C_5  and  S_6
REMARK    4  A    between atoms: S_6  and  C_8
REMARK    5  A    between atoms: C_8  and  C_9
REMARK    6  A    between atoms: C_11  and  C_12
REMARK                            x       y       z     vdW  Elec       q    Type
REMARK                         _______ _______ _______ _____ _____    ______ ____
ROOT
ATOM      1  C   UNL     1     -66.074 -43.402 -69.895  0.00  0.00    +0.000 A 
ATOM      2  C   UNL     1     -65.100 -43.790 -70.748  0.00  0.00    +0.000 A 
ATOM      3  N   UNL     1     -65.254 -43.813 -72.120  0.00  0.00    +0.000 N 
ATOM      4  C   UNL     1     -66.485 -43.565 -72.752  0.00  0.00    +0.000 A 
ATOM      5  C   UNL     1     -66.600 -43.615 -74.153  0.00  0.00    +0.000 A 
ATOM      6 BR   UNL     1     -65.111 -44.082 -75.240  0.00  0.00    +0.000 Br
ATOM      7  C   UNL     1     -67.804 -43.319 -74.788  0.00  0.00    +0.000 A 
ATOM      8  C   UNL     1     -68.912 -42.965 -74.026  0.00  0.00    +0.000 A 
ATOM      9  C   UNL     1     -68.821 -42.885 -72.630  0.00  0.00    +0.000 A 
ATOM     10 CL   UNL     1     -70.285 -42.442 -71.822  0.00  0.00    +0.000 Cl
ATOM     11  C   UNL     1     -67.596 -43.162 -71.989  0.00  0.00    +0.000 A 
ATOM     12  C   UNL     1     -67.408 -43.081 -70.514  0.00  0.00    +0.000 A 
ATOM     13  O   UNL     1     -68.358 -42.794 -69.792  0.00  0.00    +0.000 OA
ATOM     14  H   UNL     1     -64.619 -44.431 -72.625  0.00  0.00    +0.000 HD
ENDROOT
BRANCH   1  16
ATOM     15  C   UNL     1     -65.552 -41.988 -67.773  0.00  0.00    +0.000 C 
ATOM     16  C   UNL     1     -65.917 -43.317 -68.400  0.00  0.00    +0.000 C 
ATOM     17  O   UNL     1     -66.064 -44.302 -67.675  0.00  0.00    +0.000 OA
ENDBRANCH   1  16
BRANCH   2  18
ATOM     18  S   UNL     1     -63.530 -44.498 -70.141  0.00  0.00    +0.000 S 
ATOM     19  O   UNL     1     -63.338 -45.714 -71.008  0.00  0.00    +0.000 OA
BRANCH  18  20
ATOM     20  C   UNL     1     -62.366 -43.240 -70.779  0.00  0.00    +0.000 C 
BRANCH  20  21
ATOM     21  C   UNL     1     -62.502 -41.952 -70.037  0.00  0.00    +0.000 A 
ATOM     22  C   UNL     1     -63.171 -40.761 -70.424  0.00  0.00    +0.000 A 
ATOM     23  C   UNL     1     -63.012 -39.913 -69.355  0.00  0.00    +0.000 A 
ATOM     24  C   UNL     1     -63.422 -38.526 -69.063  0.00  0.00    +0.000 C 
ATOM     25  O   UNL     1     -62.311 -40.552 -68.381  0.00  0.00    +0.000 OA
ATOM     26  N   UNL     1     -61.996 -41.833 -68.800  0.00  0.00    +0.000 NA
ENDBRANCH  20  21
ENDBRANCH  18  20
ENDBRANCH   2  18
TORSDOF 4
