REMARK  Name = 
REMARK  6 active torsions:
REMARK  status: ('A' for Active; 'I' for Inactive)
REMARK    1  A    between atoms: C_1  and  C_2
REMARK    2  A    between atoms: C_2  and  C_4
REMARK    3  A    between atoms: C_5  and  S_6
REMARK    4  A    between atoms: S_6  and  C_8
REMARK    5  A    between atoms: C_8  and  C_9
REMARK    6  A    between atoms: C_11  and  C_12
REMARK                            x       y       z     vdW  Elec       q    Type
REMARK                         _______ _______ _______ _____ _____    ______ ____
ROOT
ATOM      1  C   UNL     1       3.102  -0.042  -1.205  0.00  0.00    +0.000 A 
ATOM      2  C   UNL     1       2.809   0.852  -2.176  0.00  0.00    +0.000 A 
ATOM      3  N   UNL     1       3.472   0.903  -3.386  0.00  0.00    +0.000 N 
ATOM      4  C   UNL     1       4.614   0.133  -3.663  0.00  0.00    +0.000 A 
ATOM      5  C   UNL     1       5.273   0.238  -4.902  0.00  0.00    +0.000 A 
ATOM      6 BR   UNL     1       4.681   1.466  -6.225  0.00  0.00    +0.000 Br
ATOM      7  C   UNL     1       6.377  -0.554  -5.200  0.00  0.00    +0.000 A 
ATOM      8  C   UNL     1       6.834  -1.476  -4.257  0.00  0.00    +0.000 A 
ATOM      9  C   UNL     1       6.184  -1.615  -3.026  0.00  0.00    +0.000 A 
ATOM     10 CL   UNL     1       6.883  -2.782  -1.957  0.00  0.00    +0.000 Cl
ATOM     11  C   UNL     1       5.052  -0.828  -2.735  0.00  0.00    +0.000 A 
ATOM     12  C   UNL     1       4.282  -0.942  -1.466  0.00  0.00    +0.000 A 
ATOM     13  O   UNL     1       4.632  -1.747  -0.613  0.00  0.00    +0.000 OA
ATOM     14  H   UNL     1       3.416   1.796  -3.881  0.00  0.00    +0.000 HD
ENDROOT
BRANCH   1  16
ATOM     15  C   UNL     1       2.446  -1.448   0.888  0.00  0.00    +0.000 C 
ATOM     16  C   UNL     1       2.363  -0.156   0.105  0.00  0.00    +0.000 C 
ATOM     17  O   UNL     1       1.682   0.770   0.546  0.00  0.00    +0.000 OA
ENDBRANCH   1  16
BRANCH   2  18
ATOM     18  S   UNL     1       1.607   2.197  -1.902  0.00  0.00    +0.000 S 
ATOM     19  O   UNL     1       2.405   3.440  -2.195  0.00  0.00    +0.000 OA
BRANCH  18  20
ATOM     20  C   UNL     1       0.529   1.939  -3.358  0.00  0.00    +0.000 C 
BRANCH  20  21
ATOM     21  C   UNL     1      -0.608   2.906  -3.365  0.00  0.00    +0.000 A 
ATOM     22  C   UNL     1      -0.579   4.322  -3.471  0.00  0.00    +0.000 A 
ATOM     23  C   UNL     1      -1.900   4.697  -3.459  0.00  0.00    +0.000 A 
ATOM     24  C   UNL     1      -2.611   5.988  -3.516  0.00  0.00    +0.000 C 
ATOM     25  O   UNL     1      -2.676   3.584  -3.372  0.00  0.00    +0.000 OA
ATOM     26  N   UNL     1      -1.871   2.459  -3.322  0.00  0.00    +0.000 NA
ENDBRANCH  20  21
ENDBRANCH  18  20
ENDBRANCH   2  18
TORSDOF 4
