REMARK VINA RESULT:    -5.795     15.128     16.505
REMARK INTER + INTRA:          -8.006
REMARK INTER:                  -7.073
REMARK INTRA:                  -0.933
REMARK UNBOUND:                -0.856
REMARK  Name = 
REMARK  6 active torsions:
REMARK  status: ('A' for Active; 'I' for Inactive)
REMARK    1  A    between atoms: C_1  and  C_2
REMARK    2  A    between atoms: C_2  and  C_4
REMARK    3  A    between atoms: C_5  and  S_6
REMARK    4  A    between atoms: S_6  and  C_8
REMARK    5  A    between atoms: C_8  and  C_9
REMARK    6  A    between atoms: C_11  and  C_12
REMARK                            x       y       z     vdW  Elec       q    Type
REMARK                         _______ _______ _______ _____ _____    ______ ____
ROOT
ATOM      1  C   UNL     1     -53.283 -41.442 -77.999  0.00  0.00    +0.000 A 
ATOM      2  C   UNL     1     -54.630 -41.545 -78.030  0.00  0.00    +0.000 A 
ATOM      3  N   UNL     1     -55.309 -42.174 -79.055  0.00  0.00    +0.000 N 
ATOM      4  C   UNL     1     -54.672 -42.669 -80.205  0.00  0.00    +0.000 A 
ATOM      5  C   UNL     1     -55.401 -43.334 -81.205  0.00  0.00    +0.000 A 
ATOM      6 BR   UNL     1     -57.288 -43.524 -81.073  0.00  0.00    +0.000 Br
ATOM      7  C   UNL     1     -54.762 -43.879 -82.320  0.00  0.00    +0.000 A 
ATOM      8  C   UNL     1     -53.384 -43.762 -82.450  0.00  0.00    +0.000 A 
ATOM      9  C   UNL     1     -52.632 -43.114 -81.466  0.00  0.00    +0.000 A 
ATOM     10 CL   UNL     1     -50.934 -43.021 -81.784  0.00  0.00    +0.000 Cl
ATOM     11  C   UNL     1     -53.275 -42.594 -80.323  0.00  0.00    +0.000 A 
ATOM     12  C   UNL     1     -52.539 -41.974 -79.197  0.00  0.00    +0.000 A 
ATOM     13  O   UNL     1     -51.319 -41.890 -79.245  0.00  0.00    +0.000 OA
ATOM     14  H   UNL     1     -56.313 -42.024 -79.115  0.00  0.00    +0.000 HD
ENDROOT
BRANCH   1  16
ATOM     15  C   UNL     1     -51.875 -41.784 -75.842  0.00  0.00    +0.000 C 
ATOM     16  C   UNL     1     -52.480 -40.856 -76.868  0.00  0.00    +0.000 C 
ATOM     17  O   UNL     1     -52.336 -39.647 -76.746  0.00  0.00    +0.000 OA
ENDBRANCH   1  16
BRANCH   2  18
ATOM     18  S   UNL     1     -55.674 -40.741 -76.755  0.00  0.00    +0.000 S 
ATOM     19  O   UNL     1     -57.070 -40.859 -77.304  0.00  0.00    +0.000 OA
BRANCH  18  20
ATOM     20  C   UNL     1     -55.556 -41.987 -75.420  0.00  0.00    +0.000 C 
BRANCH  20  21
ATOM     21  C   UNL     1     -55.586 -43.383 -75.950  0.00  0.00    +0.000 A 
ATOM     22  C   UNL     1     -54.585 -44.386 -75.878  0.00  0.00    +0.000 A 
ATOM     23  C   UNL     1     -55.160 -45.497 -76.452  0.00  0.00    +0.000 A 
ATOM     24  C   UNL     1     -54.713 -46.879 -76.715  0.00  0.00    +0.000 C 
ATOM     25  O   UNL     1     -56.427 -45.185 -76.840  0.00  0.00    +0.000 OA
ATOM     26  N   UNL     1     -56.700 -43.865 -76.516  0.00  0.00    +0.000 NA
ENDBRANCH  20  21
ENDBRANCH  18  20
ENDBRANCH   2  18
TORSDOF 4
