REMARK VINA RESULT:    -6.763      3.388      6.615
REMARK INTER + INTRA:          -9.609
REMARK INTER:                  -8.800
REMARK INTRA:                  -0.810
REMARK UNBOUND:                -0.869
REMARK  Name = 
REMARK  6 active torsions:
REMARK  status: ('A' for Active; 'I' for Inactive)
REMARK    1  A    between atoms: C_1  and  C_2
REMARK    2  A    between atoms: C_4  and  C_5
REMARK    3  A    between atoms: C_5  and  S_6
REMARK    4  A    between atoms: S_6  and  C_8
REMARK    5  A    between atoms: C_20  and  C_21
REMARK    6  A    between atoms: C_21  and  C_23
REMARK                            x       y       z     vdW  Elec       q    Type
REMARK                         _______ _______ _______ _____ _____    ______ ____
ROOT
ATOM      1  C   UNL     1     -55.436 -42.397 -62.455  0.00  0.00    +0.000 A 
ATOM      2  N   UNL     1     -55.703 -42.149 -61.094  0.00  0.00    +0.000 N 
ATOM      3  C   UNL     1     -56.930 -41.553 -60.694  0.00  0.00    +0.000 A 
ATOM      4  C   UNL     1     -57.429 -41.630 -59.380  0.00  0.00    +0.000 A 
ATOM      5 BR   UNL     1     -56.575 -42.704 -58.070  0.00  0.00    +0.000 Br
ATOM      6  C   UNL     1     -58.587 -40.935 -59.002  0.00  0.00    +0.000 A 
ATOM      7  C   UNL     1     -59.277 -40.172 -59.951  0.00  0.00    +0.000 A 
ATOM      8  C   UNL     1     -58.803 -40.082 -61.260  0.00  0.00    +0.000 A 
ATOM      9 CL   UNL     1     -59.765 -39.176 -62.370  0.00  0.00    +0.000 Cl
ATOM     10  C   UNL     1     -57.623 -40.753 -61.616  0.00  0.00    +0.000 A 
ATOM     11  C   UNL     1     -57.000 -40.648 -62.950  0.00  0.00    +0.000 A 
ATOM     12  O   UNL     1     -57.104 -39.636 -63.632  0.00  0.00    +0.000 OA
ATOM     13  C   UNL     1     -56.159 -41.795 -63.426  0.00  0.00    +0.000 A 
ATOM     14  H   UNL     1     -55.405 -42.928 -60.491  0.00  0.00    +0.000 HD
ENDROOT
BRANCH   1  15
ATOM     15  S   UNL     1     -54.405 -43.866 -62.706  0.00  0.00    +0.000 S 
ATOM     16  O   UNL     1     -54.511 -44.618 -61.408  0.00  0.00    +0.000 OA
BRANCH  15  17
ATOM     17  C   UNL     1     -52.671 -43.363 -62.903  0.00  0.00    +0.000 C 
BRANCH  17  21
ATOM     18  C   UNL     1     -48.748 -45.595 -65.322  0.00  0.00    +0.000 C 
ATOM     19  C   UNL     1     -49.934 -45.149 -64.568  0.00  0.00    +0.000 A 
ATOM     20  C   UNL     1     -50.460 -43.925 -64.227  0.00  0.00    +0.000 A 
ATOM     21  C   UNL     1     -51.676 -44.230 -63.575  0.00  0.00    +0.000 A 
ATOM     22  N   UNL     1     -51.833 -45.561 -63.469  0.00  0.00    +0.000 NA
ATOM     23  O   UNL     1     -50.743 -46.131 -64.093  0.00  0.00    +0.000 OA
ENDBRANCH  17  21
ENDBRANCH  15  17
ENDBRANCH   1  15
BRANCH  13  24
ATOM     24  C   UNL     1     -56.405 -42.170 -64.847  0.00  0.00    +0.000 C 
ATOM     25  O   UNL     1     -55.613 -41.852 -65.718  0.00  0.00    +0.000 OA
BRANCH  24  26
ATOM     26  C   UNL     1     -57.598 -42.973 -65.175  0.00  0.00    +0.000 C 
ATOM     27  C   UNL     1     -57.920 -43.267 -66.618  0.00  0.00    +0.000 C 
ATOM     28  C   UNL     1     -58.805 -42.348 -65.832  0.00  0.00    +0.000 C 
ENDBRANCH  24  26
ENDBRANCH  13  24
TORSDOF 5
