REMARK VINA RESULT:    -6.458     13.874     14.759
REMARK INTER + INTRA:          -8.970
REMARK INTER:                  -8.318
REMARK INTRA:                  -0.652
REMARK UNBOUND:                -1.003
REMARK  Name = 
REMARK  6 active torsions:
REMARK  status: ('A' for Active; 'I' for Inactive)
REMARK    1  A    between atoms: C_1  and  C_2
REMARK    2  A    between atoms: C_2  and  C_4
REMARK    3  A    between atoms: C_5  and  S_6
REMARK    4  A    between atoms: S_6  and  C_8
REMARK    5  A    between atoms: C_8  and  C_9
REMARK    6  A    between atoms: C_11  and  C_12
REMARK                            x       y       z     vdW  Elec       q    Type
REMARK                         _______ _______ _______ _____ _____    ______ ____
ROOT
ATOM      1  C   UNL     1     -56.060 -42.648 -77.590  0.00  0.00    +0.000 A 
ATOM      2  C   UNL     1     -55.192 -43.265 -76.758  0.00  0.00    +0.000 A 
ATOM      3  N   UNL     1     -55.168 -44.634 -76.570  0.00  0.00    +0.000 N 
ATOM      4  C   UNL     1     -56.152 -45.493 -77.094  0.00  0.00    +0.000 A 
ATOM      5  C   UNL     1     -56.136 -46.870 -76.815  0.00  0.00    +0.000 A 
ATOM      6 BR   UNL     1     -54.833 -47.613 -75.647  0.00  0.00    +0.000 Br
ATOM      7  C   UNL     1     -57.078 -47.731 -77.376  0.00  0.00    +0.000 A 
ATOM      8  C   UNL     1     -58.044 -47.223 -78.234  0.00  0.00    +0.000 A 
ATOM      9  C   UNL     1     -58.070 -45.857 -78.551  0.00  0.00    +0.000 A 
ATOM     10 CL   UNL     1     -59.339 -45.380 -79.624  0.00  0.00    +0.000 Cl
ATOM     11  C   UNL     1     -57.112 -44.988 -77.989  0.00  0.00    +0.000 A 
ATOM     12  C   UNL     1     -57.079 -43.530 -78.267  0.00  0.00    +0.000 A 
ATOM     13  O   UNL     1     -57.904 -43.035 -79.015  0.00  0.00    +0.000 OA
ATOM     14  H   UNL     1     -54.740 -44.950 -75.699  0.00  0.00    +0.000 HD
ENDROOT
BRANCH   1  16
ATOM     15  C   UNL     1     -57.028 -40.291 -77.017  0.00  0.00    +0.000 C 
ATOM     16  C   UNL     1     -56.100 -41.154 -77.840  0.00  0.00    +0.000 C 
ATOM     17  O   UNL     1     -55.399 -40.626 -78.703  0.00  0.00    +0.000 OA
ENDBRANCH   1  16
BRANCH   2  18
ATOM     18  S   UNL     1     -54.082 -42.316 -75.665  0.00  0.00    +0.000 S 
ATOM     19  O   UNL     1     -53.734 -43.299 -74.579  0.00  0.00    +0.000 OA
BRANCH  18  20
ATOM     20  C   UNL     1     -52.607 -42.209 -76.741  0.00  0.00    +0.000 C 
BRANCH  20  21
ATOM     21  C   UNL     1     -51.546 -41.320 -76.176  0.00  0.00    +0.000 A 
ATOM     22  C   UNL     1     -51.365 -39.917 -76.294  0.00  0.00    +0.000 A 
ATOM     23  C   UNL     1     -50.236 -39.646 -75.558  0.00  0.00    +0.000 A 
ATOM     24  C   UNL     1     -49.447 -38.432 -75.279  0.00  0.00    +0.000 C 
ATOM     25  O   UNL     1     -49.789 -40.801 -74.998  0.00  0.00    +0.000 OA
ATOM     26  N   UNL     1     -50.608 -41.849 -75.375  0.00  0.00    +0.000 NA
ENDBRANCH  20  21
ENDBRANCH  18  20
ENDBRANCH   2  18
TORSDOF 4
