REMARK VINA RESULT:    -6.740      3.479      5.666
REMARK INTER + INTRA:          -9.597
REMARK INTER:                  -8.670
REMARK INTRA:                  -0.928
REMARK UNBOUND:                -0.887
REMARK  Name = 
REMARK  8 active torsions:
REMARK  status: ('A' for Active; 'I' for Inactive)
REMARK    1  A    between atoms: C_1  and  C_2
REMARK    2  A    between atoms: C_4  and  C_5
REMARK    3  A    between atoms: C_5  and  S_6
REMARK    4  A    between atoms: S_6  and  C_8
REMARK    5  A    between atoms: C_20  and  C_21
REMARK    6  A    between atoms: C_21  and  C_23
REMARK    7  A    between atoms: C_23  and  C_24
REMARK    8  A    between atoms: C_23  and  C_25
REMARK                            x       y       z     vdW  Elec       q    Type
REMARK                         _______ _______ _______ _____ _____    ______ ____
ROOT
ATOM      1  C   UNL     1     -57.606 -40.822 -63.008  0.00  0.00    +0.000 A 
ATOM      2  N   UNL     1     -57.094 -39.606 -62.566  0.00  0.00    +0.000 N 
ATOM      3  C   UNL     1     -55.992 -38.996 -63.196  0.00  0.00    +0.000 A 
ATOM      4  C   UNL     1     -55.718 -37.622 -63.061  0.00  0.00    +0.000 A 
ATOM      5 BR   UNL     1     -56.918 -36.473 -62.145  0.00  0.00    +0.000 Br
ATOM      6  C   UNL     1     -54.575 -37.057 -63.633  0.00  0.00    +0.000 A 
ATOM      7  C   UNL     1     -53.692 -37.856 -64.353  0.00  0.00    +0.000 A 
ATOM      8  C   UNL     1     -53.951 -39.230 -64.507  0.00  0.00    +0.000 A 
ATOM      9 CL   UNL     1     -52.823 -40.103 -65.481  0.00  0.00    +0.000 Cl
ATOM     10  C   UNL     1     -55.101 -39.801 -63.924  0.00  0.00    +0.000 A 
ATOM     11  C   UNL     1     -55.447 -41.244 -64.001  0.00  0.00    +0.000 A 
ATOM     12  O   UNL     1     -54.567 -42.077 -64.194  0.00  0.00    +0.000 OA
ATOM     13  C   UNL     1     -56.904 -41.655 -63.812  0.00  0.00    +0.000 A 
ATOM     14  H   UNL     1     -57.805 -38.969 -62.182  0.00  0.00    +0.000 HD
ENDROOT
BRANCH   1  15
ATOM     15  S   UNL     1     -59.370 -41.015 -62.549  0.00  0.00    +0.000 S 
ATOM     16  O   UNL     1     -59.859 -39.599 -62.399  0.00  0.00    +0.000 OA
BRANCH  15  17
ATOM     17  C   UNL     1     -59.291 -41.777 -60.893  0.00  0.00    +0.000 C 
BRANCH  17  21
ATOM     18  C   UNL     1     -61.518 -46.441 -61.192  0.00  0.00    +0.000 C 
ATOM     19  C   UNL     1     -60.989 -45.085 -60.931  0.00  0.00    +0.000 A 
ATOM     20  C   UNL     1     -60.028 -44.286 -61.508  0.00  0.00    +0.000 A 
ATOM     21  C   UNL     1     -60.057 -43.073 -60.761  0.00  0.00    +0.000 A 
ATOM     22  N   UNL     1     -60.972 -43.163 -59.781  0.00  0.00    +0.000 NA
ATOM     23  O   UNL     1     -61.551 -44.413 -59.893  0.00  0.00    +0.000 OA
ENDBRANCH  17  21
ENDBRANCH  15  17
ENDBRANCH   1  15
BRANCH  13  24
ATOM     24  C   UNL     1     -57.365 -42.885 -64.562  0.00  0.00    +0.000 C 
ATOM     25  O   UNL     1     -57.438 -43.970 -63.986  0.00  0.00    +0.000 OA
BRANCH  24  26
ATOM     26  C   UNL     1     -57.681 -42.805 -66.056  0.00  0.00    +0.000 C 
ATOM     27  C   UNL     1     -57.856 -44.191 -66.672  0.00  0.00    +0.000 C 
ATOM     28  C   UNL     1     -58.913 -41.940 -66.336  0.00  0.00    +0.000 C 
ENDBRANCH  24  26
ENDBRANCH  13  24
TORSDOF 5
