REMARK VINA RESULT:    -5.888     17.545     19.420
REMARK INTER + INTRA:          -8.293
REMARK INTER:                  -7.018
REMARK INTRA:                  -1.274
REMARK UNBOUND:                -0.684
REMARK  Name = 
REMARK  8 active torsions:
REMARK  status: ('A' for Active; 'I' for Inactive)
REMARK    1  A    between atoms: C_1  and  C_2
REMARK    2  A    between atoms: C_4  and  C_5
REMARK    3  A    between atoms: C_5  and  S_6
REMARK    4  A    between atoms: S_6  and  C_8
REMARK    5  A    between atoms: C_20  and  C_21
REMARK    6  A    between atoms: C_21  and  C_23
REMARK    7  A    between atoms: C_23  and  C_24
REMARK    8  A    between atoms: C_23  and  C_25
REMARK                            x       y       z     vdW  Elec       q    Type
REMARK                         _______ _______ _______ _____ _____    ______ ____
ROOT
ATOM      1  C   UNL     1     -47.981 -24.727 -62.070  0.00  0.00    +0.000 A 
ATOM      2  N   UNL     1     -47.803 -24.755 -63.450  0.00  0.00    +0.000 N 
ATOM      3  C   UNL     1     -48.559 -23.933 -64.309  0.00  0.00    +0.000 A 
ATOM      4  C   UNL     1     -48.137 -23.628 -65.617  0.00  0.00    +0.000 A 
ATOM      5 BR   UNL     1     -46.435 -24.179 -66.246  0.00  0.00    +0.000 Br
ATOM      6  C   UNL     1     -48.944 -22.874 -66.475  0.00  0.00    +0.000 A 
ATOM      7  C   UNL     1     -50.180 -22.410 -66.036  0.00  0.00    +0.000 A 
ATOM      8  C   UNL     1     -50.617 -22.698 -64.730  0.00  0.00    +0.000 A 
ATOM      9 CL   UNL     1     -52.134 -22.009 -64.277  0.00  0.00    +0.000 Cl
ATOM     10  C   UNL     1     -49.807 -23.464 -63.867  0.00  0.00    +0.000 A 
ATOM     11  C   UNL     1     -50.191 -23.849 -62.484  0.00  0.00    +0.000 A 
ATOM     12  O   UNL     1     -51.375 -23.896 -62.166  0.00  0.00    +0.000 OA
ATOM     13  C   UNL     1     -49.086 -24.200 -61.492  0.00  0.00    +0.000 A 
ATOM     14  H   UNL     1     -46.835 -24.944 -63.743  0.00  0.00    +0.000 HD
ENDROOT
BRANCH   1  15
ATOM     15  S   UNL     1     -46.472 -25.277 -61.188  0.00  0.00    +0.000 S 
ATOM     16  O   UNL     1     -45.397 -24.362 -61.708  0.00  0.00    +0.000 OA
BRANCH  15  17
ATOM     17  C   UNL     1     -46.181 -26.950 -61.857  0.00  0.00    +0.000 C 
BRANCH  17  21
ATOM     18  C   UNL     1     -50.272 -30.109 -61.572  0.00  0.00    +0.000 C 
ATOM     19  C   UNL     1     -49.045 -29.288 -61.472  0.00  0.00    +0.000 A 
ATOM     20  C   UNL     1     -48.389 -28.411 -62.305  0.00  0.00    +0.000 A 
ATOM     21  C   UNL     1     -47.272 -27.948 -61.551  0.00  0.00    +0.000 A 
ATOM     22  N   UNL     1     -47.262 -28.539 -60.344  0.00  0.00    +0.000 NA
ATOM     23  O   UNL     1     -48.366 -29.368 -60.299  0.00  0.00    +0.000 OA
ENDBRANCH  17  21
ENDBRANCH  15  17
ENDBRANCH   1  15
BRANCH  13  24
ATOM     24  C   UNL     1     -49.353 -23.882 -60.038  0.00  0.00    +0.000 C 
ATOM     25  O   UNL     1     -49.169 -22.744 -59.609  0.00  0.00    +0.000 OA
BRANCH  24  26
ATOM     26  C   UNL     1     -49.791 -24.986 -59.073  0.00  0.00    +0.000 C 
ATOM     27  C   UNL     1     -50.285 -26.224 -59.817  0.00  0.00    +0.000 C 
ATOM     28  C   UNL     1     -48.676 -25.364 -58.094  0.00  0.00    +0.000 C 
ENDBRANCH  24  26
ENDBRANCH  13  24
TORSDOF 5
