=
 OpenBabel09172514003D

 28 30  0  0  0  0  0  0  0  0999 V2000
  -55.5080  -42.8410  -62.7020 C   0  0  0  0  0  0  0  0  0  0  0  0
  -55.2610  -41.6500  -63.2960 C   0  0  0  0  0  0  0  0  0  0  0  0
  -54.0690  -41.3590  -63.9350 N   0  0  0  0  0  0  0  0  0  0  0  0
  -52.9560  -42.2200  -63.9070 C   0  0  0  0  0  0  0  0  0  0  0  0
  -51.7610  -41.8840  -64.5680 C   0  0  0  0  0  0  0  0  0  0  0  0
  -51.5690  -40.2140  -65.4520 Br  0  0  0  0  0  0  0  0  0  0  0  0
  -50.6800  -42.7650  -64.5970 C   0  0  0  0  0  3  0  0  0  0  0  0
  -50.7810  -44.0010  -63.9640 C   0  0  0  0  0  3  0  0  0  0  0  0
  -51.9620  -44.3670  -63.3140 C   0  0  0  0  0  0  0  0  0  0  0  0
  -51.9320  -45.9280  -62.5650 Cl  0  0  0  0  0  0  0  0  0  0  0  0
  -53.0650  -43.4860  -63.3060 C   0  0  0  0  0  0  0  0  0  0  0  0
  -54.3670  -43.8210  -62.6720 C   0  0  0  0  0  0  0  0  0  0  0  0
  -54.5010  -44.8930  -62.0940 O   0  0  0  0  0  0  0  0  0  0  0  0
  -53.8600  -40.3670  -64.0590 H   0  0  0  0  0  0  0  0  0  0  0  0
  -57.7830  -44.0910  -62.8620 C   0  0  0  0  0  1  0  0  0  0  0  0
  -56.8190  -43.2340  -62.0670 C   0  0  0  0  0  0  0  0  0  0  0  0
  -57.1420  -42.8520  -60.9440 O   0  0  0  0  0  0  0  0  0  0  0  0
  -56.4400  -40.2610  -63.1380 S   0  0  1  0  0  0  0  0  0  0  0  0
  -55.5970  -39.1530  -62.5660 O   0  0  0  0  0  0  0  0  0  0  0  0
  -56.7000  -39.8390  -64.9030 C   0  0  0  0  0  2  0  0  0  0  0  0
  -57.2370  -41.0060  -65.7200 C   0  0  0  0  0  0  0  0  0  0  0  0
  -58.4550  -41.6130  -65.3790 C   0  0  0  0  0  3  0  0  0  0  0  0
  -58.9460  -42.6930  -66.1210 C   0  0  0  0  0  3  0  0  0  0  0  0
  -58.2270  -43.1910  -67.2070 C   0  0  0  0  0  3  0  0  0  0  0  0
  -57.0060  -42.6170  -67.5530 C   0  0  0  0  0  0  0  0  0  0  0  0
  -56.5090  -41.5310  -66.8060 C   0  0  0  0  0  3  0  0  0  0  0  0
  -56.2510  -43.1380  -68.6600 C   0  0  0  0  0  0  0  0  0  0  0  0
  -55.6490  -43.5460  -69.5700 N   0  0  0  0  0  0  0  0  0  0  0  0
  1 12  1  0  0  0  0
  1 16  1  0  0  0  0
  2 18  1  0  0  0  0
  2  1  2  0  0  0  0
  3  4  1  0  0  0  0
  3  2  1  0  0  0  0
  4 11  1  0  0  0  0
  5  4  2  0  0  0  0
  6  5  1  0  0  0  0
  7  5  1  0  0  0  0
  7  8  2  0  0  0  0
  8  9  1  0  0  0  0
  9 11  2  0  0  0  0
  9 10  1  0  0  0  0
 11 12  1  0  0  0  0
 12 13  2  0  0  0  0
 14  3  1  0  0  0  0
 15 16  1  0  0  0  0
 16 17  2  0  0  0  0
 18 19  2  1  0  0  0
 20 18  1  0  0  0  0
 21 22  1  0  0  0  0
 21 20  1  0  0  0  0
 23 22  2  0  0  0  0
 24 23  1  0  0  0  0
 25 24  2  0  0  0  0
 25 26  1  0  0  0  0
 26 21  2  0  0  0  0
 27 25  1  0  0  0  0
 28 27  3  0  0  0  0
M  END
>  <MODEL>
1

>  <REMARK>
 VINA RESULT:    -7.822      0.000      0.000
 INTER + INTRA:         -11.455
 INTER:                 -10.109
 INTRA:                  -1.347
 UNBOUND:                -1.347
  Name = 
  6 active torsions:
  status: ('A' for Active; 'I' for Inactive)
    1  A    between atoms: C_1  and  C_2
    2  A    between atoms: C_2  and  C_4
    3  A    between atoms: C_5  and  S_6
    4  A    between atoms: S_6  and  C_8
    5  A    between atoms: C_8  and  C_9
    6  A    between atoms: C_13  and  C_14
                            x       y       z     vdW  Elec       q    Type
                         _______ _______ _______ _____ _____    ______ ____

>  <TORSDO>
F 5

$$$$
