REMARK VINA RESULT:    -5.565      4.049      7.018
REMARK INTER + INTRA:          -8.245
REMARK INTER:                  -7.190
REMARK INTRA:                  -1.055
REMARK UNBOUND:                -1.054
REMARK  Name = 
REMARK  8 active torsions:
REMARK  status: ('A' for Active; 'I' for Inactive)
REMARK    1  A    between atoms: C_1  and  C_2
REMARK    2  A    between atoms: C_4  and  C_5
REMARK    3  A    between atoms: C_5  and  S_6
REMARK    4  A    between atoms: S_6  and  C_8
REMARK    5  A    between atoms: C_20  and  C_21
REMARK    6  A    between atoms: C_21  and  C_23
REMARK    7  A    between atoms: C_23  and  C_24
REMARK    8  A    between atoms: C_23  and  C_25
REMARK                            x       y       z     vdW  Elec       q    Type
REMARK                         _______ _______ _______ _____ _____    ______ ____
ROOT
ATOM      1  C   UNL     1     -56.251 -42.532 -78.915  0.00  0.00    +0.000 A 
ATOM      2  N   UNL     1     -57.589 -42.427 -78.548  0.00  0.00    +0.000 N 
ATOM      3  C   UNL     1     -58.623 -42.458 -79.505  0.00  0.00    +0.000 A 
ATOM      4  C   UNL     1     -59.952 -42.771 -79.163  0.00  0.00    +0.000 A 
ATOM      5 BR   UNL     1     -60.401 -43.334 -77.408  0.00  0.00    +0.000 Br
ATOM      6  C   UNL     1     -60.971 -42.718 -80.118  0.00  0.00    +0.000 A 
ATOM      7  C   UNL     1     -60.677 -42.355 -81.429  0.00  0.00    +0.000 A 
ATOM      8  C   UNL     1     -59.354 -42.045 -81.793  0.00  0.00    +0.000 A 
ATOM      9 CL   UNL     1     -59.100 -41.680 -83.461  0.00  0.00    +0.000 Cl
ATOM     10  C   UNL     1     -58.326 -42.092 -80.828  0.00  0.00    +0.000 A 
ATOM     11  C   UNL     1     -56.907 -41.752 -81.104  0.00  0.00    +0.000 A 
ATOM     12  O   UNL     1     -56.622 -41.015 -82.043  0.00  0.00    +0.000 OA
ATOM     13  C   UNL     1     -55.829 -42.320 -80.185  0.00  0.00    +0.000 A 
ATOM     14  H   UNL     1     -57.806 -42.852 -77.636  0.00  0.00    +0.000 HD
ENDROOT
BRANCH   1  15
ATOM     15  S   UNL     1     -55.228 -43.187 -77.544  0.00  0.00    +0.000 S 
ATOM     16  O   UNL     1     -56.151 -44.136 -76.828  0.00  0.00    +0.000 OA
BRANCH  15  17
ATOM     17  C   UNL     1     -54.964 -41.726 -76.483  0.00  0.00    +0.000 C 
BRANCH  17  21
ATOM     18  C   UNL     1     -49.905 -40.802 -75.883  0.00  0.00    +0.000 C 
ATOM     19  C   UNL     1     -51.358 -40.883 -76.151  0.00  0.00    +0.000 A 
ATOM     20  C   UNL     1     -52.326 -41.848 -75.990  0.00  0.00    +0.000 A 
ATOM     21  C   UNL     1     -53.536 -41.237 -76.431  0.00  0.00    +0.000 A 
ATOM     22  N   UNL     1     -53.286 -39.984 -76.850  0.00  0.00    +0.000 NA
ATOM     23  O   UNL     1     -51.933 -39.768 -76.671  0.00  0.00    +0.000 OA
ENDBRANCH  17  21
ENDBRANCH  15  17
ENDBRANCH   1  15
BRANCH  13  24
ATOM     24  C   UNL     1     -54.481 -42.600 -80.810  0.00  0.00    +0.000 C 
ATOM     25  O   UNL     1     -54.276 -43.668 -81.387  0.00  0.00    +0.000 OA
BRANCH  24  26
ATOM     26  C   UNL     1     -53.341 -41.590 -80.674  0.00  0.00    +0.000 C 
ATOM     27  C   UNL     1     -53.850 -40.219 -80.236  0.00  0.00    +0.000 C 
ATOM     28  C   UNL     1     -52.251 -42.082 -79.719  0.00  0.00    +0.000 C 
ENDBRANCH  24  26
ENDBRANCH  13  24
TORSDOF 5
