REMARK VINA RESULT:    -5.301     16.034     17.809
REMARK INTER + INTRA:          -7.470
REMARK INTER:                  -6.393
REMARK INTRA:                  -1.077
REMARK UNBOUND:                -0.930
REMARK  Name = 
REMARK  6 active torsions:
REMARK  status: ('A' for Active; 'I' for Inactive)
REMARK    1  A    between atoms: C_1  and  C_2
REMARK    2  A    between atoms: C_2  and  C_4
REMARK    3  A    between atoms: C_5  and  S_6
REMARK    4  A    between atoms: S_6  and  C_8
REMARK    5  A    between atoms: C_8  and  C_9
REMARK    6  A    between atoms: C_11  and  C_12
REMARK                            x       y       z     vdW  Elec       q    Type
REMARK                         _______ _______ _______ _____ _____    ______ ____
ROOT
ATOM      1  C   UNL     1     -49.629 -25.183 -62.114  0.00  0.00    +0.000 A 
ATOM      2  C   UNL     1     -48.458 -25.555 -62.681  0.00  0.00    +0.000 A 
ATOM      3  N   UNL     1     -47.893 -24.902 -63.764  0.00  0.00    +0.000 N 
ATOM      4  C   UNL     1     -48.643 -24.003 -64.546  0.00  0.00    +0.000 A 
ATOM      5  C   UNL     1     -48.166 -23.548 -65.786  0.00  0.00    +0.000 A 
ATOM      6 BR   UNL     1     -46.511 -24.166 -66.483  0.00  0.00    +0.000 Br
ATOM      7  C   UNL     1     -48.904 -22.642 -66.544  0.00  0.00    +0.000 A 
ATOM      8  C   UNL     1     -50.130 -22.179 -66.064  0.00  0.00    +0.000 A 
ATOM      9  C   UNL     1     -50.609 -22.595 -64.812  0.00  0.00    +0.000 A 
ATOM     10 CL   UNL     1     -52.165 -22.009 -64.357  0.00  0.00    +0.000 Cl
ATOM     11  C   UNL     1     -49.847 -23.485 -64.040  0.00  0.00    +0.000 A 
ATOM     12  C   UNL     1     -50.228 -23.924 -62.669  0.00  0.00    +0.000 A 
ATOM     13  O   UNL     1     -50.986 -23.250 -61.980  0.00  0.00    +0.000 OA
ATOM     14  H   UNL     1     -47.249 -25.484 -64.307  0.00  0.00    +0.000 HD
ENDROOT
BRANCH   1  16
ATOM     15  C   UNL     1     -49.931 -25.636 -59.569  0.00  0.00    +0.000 C 
ATOM     16  C   UNL     1     -50.329 -25.909 -61.006  0.00  0.00    +0.000 C 
ATOM     17  O   UNL     1     -51.227 -26.716 -61.246  0.00  0.00    +0.000 OA
ENDBRANCH   1  16
BRANCH   2  18
ATOM     18  S   UNL     1     -47.577 -27.066 -62.163  0.00  0.00    +0.000 S 
ATOM     19  O   UNL     1     -47.207 -27.713 -63.470  0.00  0.00    +0.000 OA
BRANCH  18  20
ATOM     20  C   UNL     1     -46.054 -26.255 -61.543  0.00  0.00    +0.000 C 
BRANCH  20  21
ATOM     21  C   UNL     1     -46.255 -25.411 -60.327  0.00  0.00    +0.000 A 
ATOM     22  C   UNL     1     -46.440 -24.011 -60.187  0.00  0.00    +0.000 A 
ATOM     23  C   UNL     1     -46.667 -23.819 -58.846  0.00  0.00    +0.000 A 
ATOM     24  C   UNL     1     -46.936 -22.649 -57.990  0.00  0.00    +0.000 C 
ATOM     25  O   UNL     1     -46.635 -25.023 -58.217  0.00  0.00    +0.000 OA
ATOM     26  N   UNL     1     -46.386 -26.020 -59.137  0.00  0.00    +0.000 NA
ENDBRANCH  20  21
ENDBRANCH  18  20
ENDBRANCH   2  18
TORSDOF 4
