MODEL 1
REMARK VINA RESULT:    -6.847      0.000      0.000
REMARK INTER + INTRA:          -9.722
REMARK INTER:                  -8.848
REMARK INTRA:                  -0.873
REMARK UNBOUND:                -0.873
REMARK  Name = 
REMARK  6 active torsions:
REMARK  status: ('A' for Active; 'I' for Inactive)
REMARK    1  A    between atoms: C_1  and  C_2
REMARK    2  A    between atoms: C_4  and  C_5
REMARK    3  A    between atoms: C_5  and  S_6
REMARK    4  A    between atoms: S_6  and  C_8
REMARK    5  A    between atoms: C_20  and  C_21
REMARK    6  A    between atoms: C_21  and  C_23
REMARK                            x       y       z     vdW  Elec       q    Type
REMARK                         _______ _______ _______ _____ _____    ______ ____
ROOT
ATOM      1  C   UNL     1     -55.692 -42.230 -76.907  0.00  0.00    +0.000 A 
ATOM      2  N   UNL     1     -54.928 -41.050 -76.991  0.00  0.00    +0.000 N 
ATOM      3  C   UNL     1     -53.532 -41.071 -76.717  0.00  0.00    +0.000 A 
ATOM      4  C   UNL     1     -52.651 -40.061 -77.145  0.00  0.00    +0.000 A 
ATOM      5 BR   UNL     1     -53.240 -38.668 -78.290  0.00  0.00    +0.000 Br
ATOM      6  C   UNL     1     -51.303 -40.063 -76.759  0.00  0.00    +0.000 A 
ATOM      7  C   UNL     1     -50.814 -41.100 -75.957  0.00  0.00    +0.000 A 
ATOM      8  C   UNL     1     -51.669 -42.113 -75.521  0.00  0.00    +0.000 A 
ATOM      9 CL   UNL     1     -50.953 -43.384 -74.597  0.00  0.00    +0.000 Cl
ATOM     10  C   UNL     1     -53.023 -42.080 -75.885  0.00  0.00    +0.000 A 
ATOM     11  C   UNL     1     -54.018 -43.058 -75.403  0.00  0.00    +0.000 A 
ATOM     12  O   UNL     1     -53.913 -43.600 -74.310  0.00  0.00    +0.000 OA
ATOM     13  C   UNL     1     -55.220 -43.320 -76.261  0.00  0.00    +0.000 A 
ATOM     14  H   UNL     1     -55.181 -40.480 -77.809  0.00  0.00    +0.000 HD
ENDROOT
BRANCH   1  15
ATOM     15  S   UNL     1     -57.067 -42.254 -78.086  0.00  0.00    +0.000 S 
ATOM     16  O   UNL     1     -56.789 -41.094 -79.003  0.00  0.00    +0.000 OA
BRANCH  15  17
ATOM     17  C   UNL     1     -58.620 -41.897 -77.214  0.00  0.00    +0.000 C 
BRANCH  17  21
ATOM     18  C   UNL     1     -59.080 -41.533 -72.127  0.00  0.00    +0.000 C 
ATOM     19  C   UNL     1     -58.815 -41.472 -73.576  0.00  0.00    +0.000 A 
ATOM     20  C   UNL     1     -59.169 -42.244 -74.658  0.00  0.00    +0.000 A 
ATOM     21  C   UNL     1     -58.648 -41.553 -75.774  0.00  0.00    +0.000 A 
ATOM     22  N   UNL     1     -57.959 -40.468 -75.377  0.00  0.00    +0.000 NA
ATOM     23  O   UNL     1     -58.069 -40.422 -74.003  0.00  0.00    +0.000 OA
ENDBRANCH  17  21
ENDBRANCH  15  17
ENDBRANCH   1  15
BRANCH  13  24
ATOM     24  C   UNL     1     -55.570 -44.764 -76.379  0.00  0.00    +0.000 C 
ATOM     25  O   UNL     1     -56.723 -45.135 -76.249  0.00  0.00    +0.000 OA
BRANCH  24  26
ATOM     26  C   UNL     1     -54.503 -45.730 -76.704  0.00  0.00    +0.000 C 
ATOM     27  C   UNL     1     -54.845 -47.190 -76.854  0.00  0.00    +0.000 C 
ATOM     28  C   UNL     1     -54.022 -46.737 -75.687  0.00  0.00    +0.000 C 
ENDBRANCH  24  26
ENDBRANCH  13  24
TORSDOF 5
ENDMDL
MODEL 2
REMARK VINA RESULT:    -6.763      3.354      5.184
REMARK INTER + INTRA:          -9.613
REMARK INTER:                  -8.827
REMARK INTRA:                  -0.786
REMARK UNBOUND:                -0.873
REMARK  Name = 
REMARK  6 active torsions:
REMARK  status: ('A' for Active; 'I' for Inactive)
REMARK    1  A    between atoms: C_1  and  C_2
REMARK    2  A    between atoms: C_4  and  C_5
REMARK    3  A    between atoms: C_5  and  S_6
REMARK    4  A    between atoms: S_6  and  C_8
REMARK    5  A    between atoms: C_20  and  C_21
REMARK    6  A    between atoms: C_21  and  C_23
REMARK                            x       y       z     vdW  Elec       q    Type
REMARK                         _______ _______ _______ _____ _____    ______ ____
ROOT
ATOM      1  C   UNL     1     -54.572 -41.796 -77.019  0.00  0.00    +0.000 A 
ATOM      2  N   UNL     1     -55.846 -41.948 -77.602  0.00  0.00    +0.000 N 
ATOM      3  C   UNL     1     -56.018 -41.824 -79.008  0.00  0.00    +0.000 A 
ATOM      4  C   UNL     1     -57.138 -42.333 -79.692  0.00  0.00    +0.000 A 
ATOM      5 BR   UNL     1     -58.432 -43.393 -78.798  0.00  0.00    +0.000 Br
ATOM      6  C   UNL     1     -57.322 -42.094 -81.061  0.00  0.00    +0.000 A 
ATOM      7  C   UNL     1     -56.364 -41.360 -81.770  0.00  0.00    +0.000 A 
ATOM      8  C   UNL     1     -55.245 -40.848 -81.114  0.00  0.00    +0.000 A 
ATOM      9 CL   UNL     1     -54.087 -40.019 -82.092  0.00  0.00    +0.000 Cl
ATOM     10  C   UNL     1     -55.090 -41.063 -79.736  0.00  0.00    +0.000 A 
ATOM     11  C   UNL     1     -53.987 -40.489 -78.943  0.00  0.00    +0.000 A 
ATOM     12  O   UNL     1     -53.468 -39.420 -79.238  0.00  0.00    +0.000 OA
ATOM     13  C   UNL     1     -53.560 -41.217 -77.702  0.00  0.00    +0.000 A 
ATOM     14  H   UNL     1     -56.373 -42.728 -77.186  0.00  0.00    +0.000 HD
ENDROOT
BRANCH   1  15
ATOM     15  S   UNL     1     -54.356 -42.822 -75.541  0.00  0.00    +0.000 S 
ATOM     16  O   UNL     1     -53.294 -43.813 -75.932  0.00  0.00    +0.000 OA
BRANCH  15  17
ATOM     17  C   UNL     1     -55.881 -43.756 -75.223  0.00  0.00    +0.000 C 
BRANCH  17  21
ATOM     18  C   UNL     1     -59.409 -41.488 -72.285  0.00  0.00    +0.000 C 
ATOM     19  C   UNL     1     -58.524 -42.099 -73.294  0.00  0.00    +0.000 A 
ATOM     20  C   UNL     1     -57.261 -42.643 -73.270  0.00  0.00    +0.000 A 
ATOM     21  C   UNL     1     -57.061 -43.133 -74.580  0.00  0.00    +0.000 A 
ATOM     22  N   UNL     1     -58.115 -42.836 -75.361  0.00  0.00    +0.000 NA
ATOM     23  O   UNL     1     -59.027 -42.192 -74.551  0.00  0.00    +0.000 OA
ENDBRANCH  17  21
ENDBRANCH  15  17
ENDBRANCH   1  15
BRANCH  13  24
ATOM     24  C   UNL     1     -52.081 -41.313 -77.543  0.00  0.00    +0.000 C 
ATOM     25  O   UNL     1     -51.400 -41.852 -78.398  0.00  0.00    +0.000 OA
BRANCH  24  26
ATOM     26  C   UNL     1     -51.452 -40.704 -76.356  0.00  0.00    +0.000 C 
ATOM     27  C   UNL     1     -49.953 -40.556 -76.305  0.00  0.00    +0.000 C 
ATOM     28  C   UNL     1     -50.634 -41.530 -75.392  0.00  0.00    +0.000 C 
ENDBRANCH  24  26
ENDBRANCH  13  24
TORSDOF 5
ENDMDL
MODEL 3
REMARK VINA RESULT:    -6.737      2.897      5.540
REMARK INTER + INTRA:          -9.580
REMARK INTER:                  -8.609
REMARK INTRA:                  -0.971
REMARK UNBOUND:                -0.873
REMARK  Name = 
REMARK  6 active torsions:
REMARK  status: ('A' for Active; 'I' for Inactive)
REMARK    1  A    between atoms: C_1  and  C_2
REMARK    2  A    between atoms: C_4  and  C_5
REMARK    3  A    between atoms: C_5  and  S_6
REMARK    4  A    between atoms: S_6  and  C_8
REMARK    5  A    between atoms: C_20  and  C_21
REMARK    6  A    between atoms: C_21  and  C_23
REMARK                            x       y       z     vdW  Elec       q    Type
REMARK                         _______ _______ _______ _____ _____    ______ ____
ROOT
ATOM      1  C   UNL     1     -55.615 -42.775 -76.938  0.00  0.00    +0.000 A 
ATOM      2  N   UNL     1     -54.285 -43.076 -76.587  0.00  0.00    +0.000 N 
ATOM      3  C   UNL     1     -53.332 -42.036 -76.403  0.00  0.00    +0.000 A 
ATOM      4  C   UNL     1     -52.131 -42.213 -75.691  0.00  0.00    +0.000 A 
ATOM      5 BR   UNL     1     -51.773 -43.826 -74.759  0.00  0.00    +0.000 Br
ATOM      6  C   UNL     1     -51.170 -41.195 -75.627  0.00  0.00    +0.000 A 
ATOM      7  C   UNL     1     -51.416 -39.969 -76.257  0.00  0.00    +0.000 A 
ATOM      8  C   UNL     1     -52.600 -39.770 -76.967  0.00  0.00    +0.000 A 
ATOM      9 CL   UNL     1     -52.840 -38.201 -77.646  0.00  0.00    +0.000 Cl
ATOM     10  C   UNL     1     -53.539 -40.810 -77.053  0.00  0.00    +0.000 A 
ATOM     11  C   UNL     1     -54.777 -40.722 -77.851  0.00  0.00    +0.000 A 
ATOM     12  O   UNL     1     -54.843 -40.041 -78.866  0.00  0.00    +0.000 OA
ATOM     13  C   UNL     1     -55.947 -41.560 -77.427  0.00  0.00    +0.000 A 
ATOM     14  H   UNL     1     -54.228 -43.820 -75.878  0.00  0.00    +0.000 HD
ENDROOT
BRANCH   1  15
ATOM     15  S   UNL     1     -56.801 -43.965 -76.260  0.00  0.00    +0.000 S 
ATOM     16  O   UNL     1     -57.381 -43.266 -75.061  0.00  0.00    +0.000 OA
BRANCH  15  17
ATOM     17  C   UNL     1     -55.912 -45.431 -75.657  0.00  0.00    +0.000 C 
BRANCH  17  21
ATOM     18  C   UNL     1     -55.395 -49.866 -78.163  0.00  0.00    +0.000 C 
ATOM     19  C   UNL     1     -55.463 -48.498 -77.616  0.00  0.00    +0.000 A 
ATOM     20  C   UNL     1     -55.964 -47.941 -76.464  0.00  0.00    +0.000 A 
ATOM     21  C   UNL     1     -55.603 -46.578 -76.542  0.00  0.00    +0.000 A 
ATOM     22  N   UNL     1     -54.985 -46.320 -77.708  0.00  0.00    +0.000 NA
ATOM     23  O   UNL     1     -54.898 -47.524 -78.374  0.00  0.00    +0.000 OA
ENDBRANCH  17  21
ENDBRANCH  15  17
ENDBRANCH   1  15
BRANCH  13  24
ATOM     24  C   UNL     1     -57.248 -40.833 -77.462  0.00  0.00    +0.000 C 
ATOM     25  O   UNL     1     -57.479 -39.936 -76.669  0.00  0.00    +0.000 OA
BRANCH  24  26
ATOM     26  C   UNL     1     -58.232 -41.186 -78.503  0.00  0.00    +0.000 C 
ATOM     27  C   UNL     1     -59.598 -40.549 -78.478  0.00  0.00    +0.000 C 
ATOM     28  C   UNL     1     -59.455 -42.010 -78.177  0.00  0.00    +0.000 C 
ENDBRANCH  24  26
ENDBRANCH  13  24
TORSDOF 5
ENDMDL
MODEL 4
REMARK VINA RESULT:    -6.722     11.138     13.580
REMARK INTER + INTRA:          -9.561
REMARK INTER:                  -8.729
REMARK INTRA:                  -0.831
REMARK UNBOUND:                -0.873
REMARK  Name = 
REMARK  6 active torsions:
REMARK  status: ('A' for Active; 'I' for Inactive)
REMARK    1  A    between atoms: C_1  and  C_2
REMARK    2  A    between atoms: C_4  and  C_5
REMARK    3  A    between atoms: C_5  and  S_6
REMARK    4  A    between atoms: S_6  and  C_8
REMARK    5  A    between atoms: C_20  and  C_21
REMARK    6  A    between atoms: C_21  and  C_23
REMARK                            x       y       z     vdW  Elec       q    Type
REMARK                         _______ _______ _______ _____ _____    ______ ____
ROOT
ATOM      1  C   UNL     1     -57.751 -41.045 -62.772  0.00  0.00    +0.000 A 
ATOM      2  N   UNL     1     -57.274 -39.776 -62.391  0.00  0.00    +0.000 N 
ATOM      3  C   UNL     1     -56.182 -39.177 -63.078  0.00  0.00    +0.000 A 
ATOM      4  C   UNL     1     -55.906 -37.798 -63.026  0.00  0.00    +0.000 A 
ATOM      5 BR   UNL     1     -57.094 -36.593 -62.168  0.00  0.00    +0.000 Br
ATOM      6  C   UNL     1     -54.757 -37.265 -63.627  0.00  0.00    +0.000 A 
ATOM      7  C   UNL     1     -53.880 -38.112 -64.315  0.00  0.00    +0.000 A 
ATOM      8  C   UNL     1     -54.134 -39.482 -64.382  0.00  0.00    +0.000 A 
ATOM      9 CL   UNL     1     -53.031 -40.428 -65.315  0.00  0.00    +0.000 Cl
ATOM     10  C   UNL     1     -55.268 -40.008 -63.745  0.00  0.00    +0.000 A 
ATOM     11  C   UNL     1     -55.573 -41.451 -63.689  0.00  0.00    +0.000 A 
ATOM     12  O   UNL     1     -54.688 -42.297 -63.686  0.00  0.00    +0.000 OA
ATOM     13  C   UNL     1     -57.009 -41.861 -63.553  0.00  0.00    +0.000 A 
ATOM     14  H   UNL     1     -58.038 -39.121 -62.176  0.00  0.00    +0.000 HD
ENDROOT
BRANCH   1  15
ATOM     15  S   UNL     1     -59.533 -41.229 -62.501  0.00  0.00    +0.000 S 
ATOM     16  O   UNL     1     -60.027 -39.819 -62.318  0.00  0.00    +0.000 OA
BRANCH  15  17
ATOM     17  C   UNL     1     -59.821 -42.113 -60.940  0.00  0.00    +0.000 C 
BRANCH  17  21
ATOM     18  C   UNL     1     -61.789 -46.839 -61.038  0.00  0.00    +0.000 C 
ATOM     19  C   UNL     1     -61.390 -45.427 -60.888  0.00  0.00    +0.000 A 
ATOM     20  C   UNL     1     -60.295 -44.687 -61.266  0.00  0.00    +0.000 A 
ATOM     21  C   UNL     1     -60.611 -43.364 -60.883  0.00  0.00    +0.000 A 
ATOM     22  N   UNL     1     -61.796 -43.328 -60.248  0.00  0.00    +0.000 NA
ATOM     23  O   UNL     1     -62.279 -44.620 -60.256  0.00  0.00    +0.000 OA
ENDBRANCH  17  21
ENDBRANCH  15  17
ENDBRANCH   1  15
BRANCH  13  24
ATOM     24  C   UNL     1     -57.394 -42.995 -64.440  0.00  0.00    +0.000 C 
ATOM     25  O   UNL     1     -57.387 -44.140 -64.021  0.00  0.00    +0.000 OA
BRANCH  24  26
ATOM     26  C   UNL     1     -57.831 -42.703 -65.819  0.00  0.00    +0.000 C 
ATOM     27  C   UNL     1     -57.831 -43.807 -66.845  0.00  0.00    +0.000 C 
ATOM     28  C   UNL     1     -56.847 -42.684 -66.964  0.00  0.00    +0.000 C 
ENDBRANCH  24  26
ENDBRANCH  13  24
TORSDOF 5
ENDMDL
MODEL 5
REMARK VINA RESULT:    -6.629     12.371     14.528
REMARK INTER + INTRA:          -9.440
REMARK INTER:                  -8.215
REMARK INTRA:                  -1.224
REMARK UNBOUND:                -0.873
REMARK  Name = 
REMARK  6 active torsions:
REMARK  status: ('A' for Active; 'I' for Inactive)
REMARK    1  A    between atoms: C_1  and  C_2
REMARK    2  A    between atoms: C_4  and  C_5
REMARK    3  A    between atoms: C_5  and  S_6
REMARK    4  A    between atoms: S_6  and  C_8
REMARK    5  A    between atoms: C_20  and  C_21
REMARK    6  A    between atoms: C_21  and  C_23
REMARK                            x       y       z     vdW  Elec       q    Type
REMARK                         _______ _______ _______ _____ _____    ______ ____
ROOT
ATOM      1  C   UNL     1     -56.372 -42.859 -63.012  0.00  0.00    +0.000 A 
ATOM      2  N   UNL     1     -55.295 -43.767 -63.025  0.00  0.00    +0.000 N 
ATOM      3  C   UNL     1     -53.971 -43.316 -63.281  0.00  0.00    +0.000 A 
ATOM      4  C   UNL     1     -52.827 -44.058 -62.934  0.00  0.00    +0.000 A 
ATOM      5 BR   UNL     1     -52.966 -45.657 -61.923  0.00  0.00    +0.000 Br
ATOM      6  C   UNL     1     -51.544 -43.628 -63.303  0.00  0.00    +0.000 A 
ATOM      7  C   UNL     1     -51.392 -42.427 -64.004  0.00  0.00    +0.000 A 
ATOM      8  C   UNL     1     -52.512 -41.673 -64.358  0.00  0.00    +0.000 A 
ATOM      9 CL   UNL     1     -52.212 -40.173 -65.158  0.00  0.00    +0.000 Cl
ATOM     10  C   UNL     1     -53.792 -42.132 -64.014  0.00  0.00    +0.000 A 
ATOM     11  C   UNL     1     -55.036 -41.449 -64.418  0.00  0.00    +0.000 A 
ATOM     12  O   UNL     1     -55.110 -40.806 -65.457  0.00  0.00    +0.000 OA
ATOM     13  C   UNL     1     -56.249 -41.627 -63.553  0.00  0.00    +0.000 A 
ATOM     14  H   UNL     1     -55.358 -44.456 -62.263  0.00  0.00    +0.000 HD
ENDROOT
BRANCH   1  15
ATOM     15  S   UNL     1     -57.676 -43.342 -61.850  0.00  0.00    +0.000 S 
ATOM     16  O   UNL     1     -58.931 -43.333 -62.680  0.00  0.00    +0.000 OA
BRANCH  15  17
ATOM     17  C   UNL     1     -57.858 -42.060 -60.575  0.00  0.00    +0.000 C 
BRANCH  17  21
ATOM     18  C   UNL     1     -54.425 -39.914 -57.441  0.00  0.00    +0.000 C 
ATOM     19  C   UNL     1     -55.318 -40.717 -58.297  0.00  0.00    +0.000 A 
ATOM     20  C   UNL     1     -56.442 -40.448 -59.042  0.00  0.00    +0.000 A 
ATOM     21  C   UNL     1     -56.734 -41.666 -59.696  0.00  0.00    +0.000 A 
ATOM     22  N   UNL     1     -55.876 -42.626 -59.309  0.00  0.00    +0.000 NA
ATOM     23  O   UNL     1     -54.992 -42.027 -58.436  0.00  0.00    +0.000 OA
ENDBRANCH  17  21
ENDBRANCH  15  17
ENDBRANCH   1  15
BRANCH  13  24
ATOM     24  C   UNL     1     -57.003 -40.364 -63.311  0.00  0.00    +0.000 C 
ATOM     25  O   UNL     1     -58.157 -40.250 -63.686  0.00  0.00    +0.000 OA
BRANCH  24  26
ATOM     26  C   UNL     1     -56.344 -39.273 -62.568  0.00  0.00    +0.000 C 
ATOM     27  C   UNL     1     -57.073 -37.971 -62.361  0.00  0.00    +0.000 C 
ATOM     28  C   UNL     1     -55.881 -38.018 -63.267  0.00  0.00    +0.000 C 
ENDBRANCH  24  26
ENDBRANCH  13  24
TORSDOF 5
ENDMDL
MODEL 6
REMARK VINA RESULT:    -6.595      2.837      5.786
REMARK INTER + INTRA:          -9.396
REMARK INTER:                  -8.486
REMARK INTRA:                  -0.910
REMARK UNBOUND:                -0.873
REMARK  Name = 
REMARK  6 active torsions:
REMARK  status: ('A' for Active; 'I' for Inactive)
REMARK    1  A    between atoms: C_1  and  C_2
REMARK    2  A    between atoms: C_4  and  C_5
REMARK    3  A    between atoms: C_5  and  S_6
REMARK    4  A    between atoms: S_6  and  C_8
REMARK    5  A    between atoms: C_20  and  C_21
REMARK    6  A    between atoms: C_21  and  C_23
REMARK                            x       y       z     vdW  Elec       q    Type
REMARK                         _______ _______ _______ _____ _____    ______ ____
ROOT
ATOM      1  C   UNL     1     -54.939 -43.132 -77.649  0.00  0.00    +0.000 A 
ATOM      2  N   UNL     1     -54.913 -43.925 -78.813  0.00  0.00    +0.000 N 
ATOM      3  C   UNL     1     -55.207 -45.314 -78.750  0.00  0.00    +0.000 A 
ATOM      4  C   UNL     1     -55.579 -46.073 -79.875  0.00  0.00    +0.000 A 
ATOM      5 BR   UNL     1     -55.895 -45.245 -81.553  0.00  0.00    +0.000 Br
ATOM      6  C   UNL     1     -55.753 -47.461 -79.789  0.00  0.00    +0.000 A 
ATOM      7  C   UNL     1     -55.581 -48.105 -78.558  0.00  0.00    +0.000 A 
ATOM      8  C   UNL     1     -55.214 -47.374 -77.428  0.00  0.00    +0.000 A 
ATOM      9 CL   UNL     1     -55.097 -48.250 -75.945  0.00  0.00    +0.000 Cl
ATOM     10  C   UNL     1     -55.008 -45.991 -77.536  0.00  0.00    +0.000 A 
ATOM     11  C   UNL     1     -54.536 -45.150 -76.418  0.00  0.00    +0.000 A 
ATOM     12  O   UNL     1     -53.805 -45.594 -75.542  0.00  0.00    +0.000 OA
ATOM     13  C   UNL     1     -54.913 -43.698 -76.422  0.00  0.00    +0.000 A 
ATOM     14  H   UNL     1     -55.340 -43.447 -79.619  0.00  0.00    +0.000 HD
ENDROOT
BRANCH   1  15
ATOM     15  S   UNL     1     -55.451 -41.426 -77.980  0.00  0.00    +0.000 S 
ATOM     16  O   UNL     1     -56.270 -41.523 -79.238  0.00  0.00    +0.000 OA
BRANCH  15  17
ATOM     17  C   UNL     1     -53.988 -40.417 -78.360  0.00  0.00    +0.000 C 
BRANCH  17  21
ATOM     18  C   UNL     1     -49.893 -40.886 -75.323  0.00  0.00    +0.000 C 
ATOM     19  C   UNL     1     -51.047 -40.540 -76.173  0.00  0.00    +0.000 A 
ATOM     20  C   UNL     1     -51.920 -41.258 -76.956  0.00  0.00    +0.000 A 
ATOM     21  C   UNL     1     -52.851 -40.301 -77.418  0.00  0.00    +0.000 A 
ATOM     22  N   UNL     1     -52.513 -39.071 -76.993  0.00  0.00    +0.000 NA
ATOM     23  O   UNL     1     -51.386 -39.227 -76.214  0.00  0.00    +0.000 OA
ENDBRANCH  17  21
ENDBRANCH  15  17
ENDBRANCH   1  15
BRANCH  13  24
ATOM     24  C   UNL     1     -55.356 -43.190 -75.093  0.00  0.00    +0.000 C 
ATOM     25  O   UNL     1     -54.598 -42.542 -74.393  0.00  0.00    +0.000 OA
BRANCH  24  26
ATOM     26  C   UNL     1     -56.743 -43.446 -74.661  0.00  0.00    +0.000 C 
ATOM     27  C   UNL     1     -57.886 -43.023 -75.548  0.00  0.00    +0.000 C 
ATOM     28  C   UNL     1     -57.655 -42.315 -74.247  0.00  0.00    +0.000 C 
ENDBRANCH  24  26
ENDBRANCH  13  24
TORSDOF 5
ENDMDL
MODEL 7
REMARK VINA RESULT:    -6.564      3.378      5.315
REMARK INTER + INTRA:          -9.357
REMARK INTER:                  -8.439
REMARK INTRA:                  -0.918
REMARK UNBOUND:                -0.873
REMARK  Name = 
REMARK  6 active torsions:
REMARK  status: ('A' for Active; 'I' for Inactive)
REMARK    1  A    between atoms: C_1  and  C_2
REMARK    2  A    between atoms: C_4  and  C_5
REMARK    3  A    between atoms: C_5  and  S_6
REMARK    4  A    between atoms: S_6  and  C_8
REMARK    5  A    between atoms: C_20  and  C_21
REMARK    6  A    between atoms: C_21  and  C_23
REMARK                            x       y       z     vdW  Elec       q    Type
REMARK                         _______ _______ _______ _____ _____    ______ ____
ROOT
ATOM      1  C   UNL     1     -57.611 -43.310 -77.239  0.00  0.00    +0.000 A 
ATOM      2  N   UNL     1     -57.192 -44.625 -77.521  0.00  0.00    +0.000 N 
ATOM      3  C   UNL     1     -56.100 -45.203 -76.817  0.00  0.00    +0.000 A 
ATOM      4  C   UNL     1     -55.875 -46.591 -76.754  0.00  0.00    +0.000 A 
ATOM      5 BR   UNL     1     -57.132 -47.820 -77.467  0.00  0.00    +0.000 Br
ATOM      6  C   UNL     1     -54.727 -47.113 -76.142  0.00  0.00    +0.000 A 
ATOM      7  C   UNL     1     -53.798 -46.244 -75.558  0.00  0.00    +0.000 A 
ATOM      8  C   UNL     1     -54.000 -44.864 -75.606  0.00  0.00    +0.000 A 
ATOM      9 CL   UNL     1     -52.835 -43.883 -74.794  0.00  0.00    +0.000 Cl
ATOM     10  C   UNL     1     -55.136 -44.353 -76.252  0.00  0.00    +0.000 A 
ATOM     11  C   UNL     1     -55.391 -42.910 -76.428  0.00  0.00    +0.000 A 
ATOM     12  O   UNL     1     -54.476 -42.102 -76.532  0.00  0.00    +0.000 OA
ATOM     13  C   UNL     1     -56.815 -42.458 -76.557  0.00  0.00    +0.000 A 
ATOM     14  H   UNL     1     -57.985 -45.267 -77.654  0.00  0.00    +0.000 HD
ENDROOT
BRANCH   1  15
ATOM     15  S   UNL     1     -59.394 -43.083 -77.473  0.00  0.00    +0.000 S 
ATOM     16  O   UNL     1     -59.921 -44.478 -77.670  0.00  0.00    +0.000 OA
BRANCH  15  17
ATOM     17  C   UNL     1     -59.691 -42.166 -79.013  0.00  0.00    +0.000 C 
BRANCH  17  21
ATOM     18  C   UNL     1     -61.584 -37.414 -78.787  0.00  0.00    +0.000 C 
ATOM     19  C   UNL     1     -61.208 -38.827 -78.974  0.00  0.00    +0.000 A 
ATOM     20  C   UNL     1     -60.123 -39.594 -78.620  0.00  0.00    +0.000 A 
ATOM     21  C   UNL     1     -60.462 -40.901 -79.035  0.00  0.00    +0.000 A 
ATOM     22  N   UNL     1     -61.650 -40.903 -79.664  0.00  0.00    +0.000 NA
ATOM     23  O   UNL     1     -62.112 -39.604 -79.622  0.00  0.00    +0.000 OA
ENDBRANCH  17  21
ENDBRANCH  15  17
ENDBRANCH   1  15
BRANCH  13  24
ATOM     24  C   UNL     1     -57.130 -41.237 -75.762  0.00  0.00    +0.000 C 
ATOM     25  O   UNL     1     -57.324 -40.169 -76.318  0.00  0.00    +0.000 OA
BRANCH  24  26
ATOM     26  C   UNL     1     -57.252 -41.353 -74.297  0.00  0.00    +0.000 C 
ATOM     27  C   UNL     1     -57.641 -42.676 -73.688  0.00  0.00    +0.000 C 
ATOM     28  C   UNL     1     -58.598 -41.524 -73.634  0.00  0.00    +0.000 C 
ENDBRANCH  24  26
ENDBRANCH  13  24
TORSDOF 5
ENDMDL
MODEL 8
REMARK VINA RESULT:    -6.553      3.737      6.950
REMARK INTER + INTRA:          -9.342
REMARK INTER:                  -8.746
REMARK INTRA:                  -0.596
REMARK UNBOUND:                -0.873
REMARK  Name = 
REMARK  6 active torsions:
REMARK  status: ('A' for Active; 'I' for Inactive)
REMARK    1  A    between atoms: C_1  and  C_2
REMARK    2  A    between atoms: C_4  and  C_5
REMARK    3  A    between atoms: C_5  and  S_6
REMARK    4  A    between atoms: S_6  and  C_8
REMARK    5  A    between atoms: C_20  and  C_21
REMARK    6  A    between atoms: C_21  and  C_23
REMARK                            x       y       z     vdW  Elec       q    Type
REMARK                         _______ _______ _______ _____ _____    ______ ____
ROOT
ATOM      1  C   UNL     1     -55.402 -42.358 -77.800  0.00  0.00    +0.000 A 
ATOM      2  N   UNL     1     -56.710 -42.837 -77.589  0.00  0.00    +0.000 N 
ATOM      3  C   UNL     1     -57.391 -42.570 -76.370  0.00  0.00    +0.000 A 
ATOM      4  C   UNL     1     -58.789 -42.664 -76.234  0.00  0.00    +0.000 A 
ATOM      5 BR   UNL     1     -59.899 -42.988 -77.738  0.00  0.00    +0.000 Br
ATOM      6  C   UNL     1     -59.409 -42.500 -74.988  0.00  0.00    +0.000 A 
ATOM      7  C   UNL     1     -58.633 -42.209 -73.861  0.00  0.00    +0.000 A 
ATOM      8  C   UNL     1     -57.246 -42.108 -73.971  0.00  0.00    +0.000 A 
ATOM      9 CL   UNL     1     -56.386 -41.675 -72.537  0.00  0.00    +0.000 Cl
ATOM     10  C   UNL     1     -56.633 -42.311 -75.217  0.00  0.00    +0.000 A 
ATOM     11  C   UNL     1     -55.171 -42.309 -75.414  0.00  0.00    +0.000 A 
ATOM     12  O   UNL     1     -54.401 -42.665 -74.530  0.00  0.00    +0.000 OA
ATOM     13  C   UNL     1     -54.643 -41.932 -76.766  0.00  0.00    +0.000 A 
ATOM     14  H   UNL     1     -57.301 -42.735 -78.425  0.00  0.00    +0.000 HD
ENDROOT
BRANCH   1  15
ATOM     15  S   UNL     1     -55.074 -41.973 -79.540  0.00  0.00    +0.000 S 
ATOM     16  O   UNL     1     -56.184 -42.660 -80.286  0.00  0.00    +0.000 OA
BRANCH  15  17
ATOM     17  C   UNL     1     -53.513 -42.751 -80.049  0.00  0.00    +0.000 C 
BRANCH  17  21
ATOM     18  C   UNL     1     -50.309 -41.798 -83.927  0.00  0.00    +0.000 C 
ATOM     19  C   UNL     1     -51.378 -41.971 -82.927  0.00  0.00    +0.000 A 
ATOM     20  C   UNL     1     -51.482 -42.635 -81.728  0.00  0.00    +0.000 A 
ATOM     21  C   UNL     1     -52.767 -42.300 -81.246  0.00  0.00    +0.000 A 
ATOM     22  N   UNL     1     -53.421 -41.536 -82.139  0.00  0.00    +0.000 NA
ATOM     23  O   UNL     1     -52.547 -41.332 -83.187  0.00  0.00    +0.000 OA
ENDBRANCH  17  21
ENDBRANCH  15  17
ENDBRANCH   1  15
BRANCH  13  24
ATOM     24  C   UNL     1     -53.473 -41.009 -76.717  0.00  0.00    +0.000 C 
ATOM     25  O   UNL     1     -53.624 -39.809 -76.862  0.00  0.00    +0.000 OA
BRANCH  24  26
ATOM     26  C   UNL     1     -52.137 -41.570 -76.443  0.00  0.00    +0.000 C 
ATOM     27  C   UNL     1     -50.965 -40.639 -76.265  0.00  0.00    +0.000 C 
ATOM     28  C   UNL     1     -51.038 -41.517 -77.477  0.00  0.00    +0.000 C 
ENDBRANCH  24  26
ENDBRANCH  13  24
TORSDOF 5
ENDMDL
MODEL 9
REMARK VINA RESULT:    -6.526      3.590      4.103
REMARK INTER + INTRA:          -9.307
REMARK INTER:                  -8.563
REMARK INTRA:                  -0.744
REMARK UNBOUND:                -0.873
REMARK  Name = 
REMARK  6 active torsions:
REMARK  status: ('A' for Active; 'I' for Inactive)
REMARK    1  A    between atoms: C_1  and  C_2
REMARK    2  A    between atoms: C_4  and  C_5
REMARK    3  A    between atoms: C_5  and  S_6
REMARK    4  A    between atoms: S_6  and  C_8
REMARK    5  A    between atoms: C_20  and  C_21
REMARK    6  A    between atoms: C_21  and  C_23
REMARK                            x       y       z     vdW  Elec       q    Type
REMARK                         _______ _______ _______ _____ _____    ______ ____
ROOT
ATOM      1  C   UNL     1     -55.414 -41.523 -79.017  0.00  0.00    +0.000 A 
ATOM      2  N   UNL     1     -55.433 -40.928 -80.293  0.00  0.00    +0.000 N 
ATOM      3  C   UNL     1     -54.466 -41.286 -81.273  0.00  0.00    +0.000 A 
ATOM      4  C   UNL     1     -54.643 -41.048 -82.649  0.00  0.00    +0.000 A 
ATOM      5 BR   UNL     1     -56.286 -40.383 -83.324  0.00  0.00    +0.000 Br
ATOM      6  C   UNL     1     -53.619 -41.316 -83.568  0.00  0.00    +0.000 A 
ATOM      7  C   UNL     1     -52.409 -41.855 -83.119  0.00  0.00    +0.000 A 
ATOM      8  C   UNL     1     -52.211 -42.102 -81.760  0.00  0.00    +0.000 A 
ATOM      9 CL   UNL     1     -50.712 -42.835 -81.317  0.00  0.00    +0.000 Cl
ATOM     10  C   UNL     1     -53.230 -41.796 -80.846  0.00  0.00    +0.000 A 
ATOM     11  C   UNL     1     -53.082 -41.942 -79.385  0.00  0.00    +0.000 A 
ATOM     12  O   UNL     1     -51.997 -41.810 -78.830  0.00  0.00    +0.000 OA
ATOM     13  C   UNL     1     -54.320 -42.180 -78.572  0.00  0.00    +0.000 A 
ATOM     14  H   UNL     1     -56.388 -40.838 -80.667  0.00  0.00    +0.000 HD
ENDROOT
BRANCH   1  15
ATOM     15  S   UNL     1     -57.070 -41.689 -78.301  0.00  0.00    +0.000 S 
ATOM     16  O   UNL     1     -57.990 -41.183 -79.378  0.00  0.00    +0.000 OA
BRANCH  15  17
ATOM     17  C   UNL     1     -57.232 -40.571 -76.878  0.00  0.00    +0.000 C 
BRANCH  17  21
ATOM     18  C   UNL     1     -58.775 -41.428 -72.072  0.00  0.00    +0.000 C 
ATOM     19  C   UNL     1     -58.492 -41.307 -73.514  0.00  0.00    +0.000 A 
ATOM     20  C   UNL     1     -57.606 -40.574 -74.268  0.00  0.00    +0.000 A 
ATOM     21  C   UNL     1     -57.813 -41.019 -75.592  0.00  0.00    +0.000 A 
ATOM     22  N   UNL     1     -58.815 -41.916 -75.637  0.00  0.00    +0.000 NA
ATOM     23  O   UNL     1     -59.234 -42.093 -74.335  0.00  0.00    +0.000 OA
ENDBRANCH  17  21
ENDBRANCH  15  17
ENDBRANCH   1  15
BRANCH  13  24
ATOM     24  C   UNL     1     -54.158 -43.231 -77.528  0.00  0.00    +0.000 C 
ATOM     25  O   UNL     1     -54.394 -44.399 -77.782  0.00  0.00    +0.000 OA
BRANCH  24  26
ATOM     26  C   UNL     1     -53.662 -42.839 -76.195  0.00  0.00    +0.000 C 
ATOM     27  C   UNL     1     -53.433 -43.899 -75.148  0.00  0.00    +0.000 C 
ATOM     28  C   UNL     1     -54.549 -42.914 -74.975  0.00  0.00    +0.000 C 
ENDBRANCH  24  26
ENDBRANCH  13  24
TORSDOF 5
ENDMDL
MODEL 10
REMARK VINA RESULT:    -6.507      2.401      4.310
REMARK INTER + INTRA:          -9.282
REMARK INTER:                  -8.148
REMARK INTRA:                  -1.134
REMARK UNBOUND:                -0.873
REMARK  Name = 
REMARK  6 active torsions:
REMARK  status: ('A' for Active; 'I' for Inactive)
REMARK    1  A    between atoms: C_1  and  C_2
REMARK    2  A    between atoms: C_4  and  C_5
REMARK    3  A    between atoms: C_5  and  S_6
REMARK    4  A    between atoms: S_6  and  C_8
REMARK    5  A    between atoms: C_20  and  C_21
REMARK    6  A    between atoms: C_21  and  C_23
REMARK                            x       y       z     vdW  Elec       q    Type
REMARK                         _______ _______ _______ _____ _____    ______ ____
ROOT
ATOM      1  C   UNL     1     -56.306 -41.910 -77.663  0.00  0.00    +0.000 A 
ATOM      2  N   UNL     1     -55.419 -40.831 -77.485  0.00  0.00    +0.000 N 
ATOM      3  C   UNL     1     -54.101 -41.050 -76.999  0.00  0.00    +0.000 A 
ATOM      4  C   UNL     1     -53.058 -40.120 -77.161  0.00  0.00    +0.000 A 
ATOM      5 BR   UNL     1     -53.293 -38.558 -78.211  0.00  0.00    +0.000 Br
ATOM      6  C   UNL     1     -51.803 -40.327 -76.571  0.00  0.00    +0.000 A 
ATOM      7  C   UNL     1     -51.570 -41.491 -75.830  0.00  0.00    +0.000 A 
ATOM      8  C   UNL     1     -52.588 -42.429 -75.657  0.00  0.00    +0.000 A 
ATOM      9 CL   UNL     1     -52.178 -43.864 -74.788  0.00  0.00    +0.000 Cl
ATOM     10  C   UNL     1     -53.850 -42.193 -76.223  0.00  0.00    +0.000 A 
ATOM     11  C   UNL     1     -55.009 -43.084 -76.023  0.00  0.00    +0.000 A 
ATOM     12  O   UNL     1     -55.149 -43.740 -74.999  0.00  0.00    +0.000 OA
ATOM     13  C   UNL     1     -56.069 -43.108 -77.085  0.00  0.00    +0.000 A 
ATOM     14  H   UNL     1     -55.468 -40.155 -78.260  0.00  0.00    +0.000 HD
ENDROOT
BRANCH   1  15
ATOM     15  S   UNL     1     -57.456 -41.646 -79.039  0.00  0.00    +0.000 S 
ATOM     16  O   UNL     1     -58.554 -42.647 -78.799  0.00  0.00    +0.000 OA
BRANCH  15  17
ATOM     17  C   UNL     1     -56.644 -42.094 -80.602  0.00  0.00    +0.000 C 
BRANCH  17  21
ATOM     18  C   UNL     1     -51.569 -42.572 -81.081  0.00  0.00    +0.000 C 
ATOM     19  C   UNL     1     -53.007 -42.245 -81.039  0.00  0.00    +0.000 A 
ATOM     20  C   UNL     1     -54.140 -42.918 -80.649  0.00  0.00    +0.000 A 
ATOM     21  C   UNL     1     -55.180 -41.972 -80.786  0.00  0.00    +0.000 A 
ATOM     22  N   UNL     1     -54.707 -40.822 -81.297  0.00  0.00    +0.000 NA
ATOM     23  O   UNL     1     -53.347 -40.998 -81.451  0.00  0.00    +0.000 OA
ENDBRANCH  17  21
ENDBRANCH  15  17
ENDBRANCH   1  15
BRANCH  13  24
ATOM     24  C   UNL     1     -56.544 -44.479 -77.426  0.00  0.00    +0.000 C 
ATOM     25  O   UNL     1     -57.623 -44.879 -77.026  0.00  0.00    +0.000 OA
BRANCH  24  26
ATOM     26  C   UNL     1     -55.706 -45.325 -78.297  0.00  0.00    +0.000 C 
ATOM     27  C   UNL     1     -56.049 -46.783 -78.467  0.00  0.00    +0.000 C 
ATOM     28  C   UNL     1     -54.809 -46.395 -77.721  0.00  0.00    +0.000 C 
ENDBRANCH  24  26
ENDBRANCH  13  24
TORSDOF 5
ENDMDL
MODEL 11
REMARK VINA RESULT:    -6.011      3.711      6.760
REMARK INTER + INTRA:          -8.641
REMARK INTER:                  -7.597
REMARK INTRA:                  -1.044
REMARK UNBOUND:                -0.873
REMARK  Name = 
REMARK  6 active torsions:
REMARK  status: ('A' for Active; 'I' for Inactive)
REMARK    1  A    between atoms: C_1  and  C_2
REMARK    2  A    between atoms: C_4  and  C_5
REMARK    3  A    between atoms: C_5  and  S_6
REMARK    4  A    between atoms: S_6  and  C_8
REMARK    5  A    between atoms: C_20  and  C_21
REMARK    6  A    between atoms: C_21  and  C_23
REMARK                            x       y       z     vdW  Elec       q    Type
REMARK                         _______ _______ _______ _____ _____    ______ ____
ROOT
ATOM      1  C   UNL     1     -55.997 -41.489 -79.143  0.00  0.00    +0.000 A 
ATOM      2  N   UNL     1     -56.591 -41.764 -80.390  0.00  0.00    +0.000 N 
ATOM      3  C   UNL     1     -58.001 -41.907 -80.504  0.00  0.00    +0.000 A 
ATOM      4  C   UNL     1     -58.688 -41.792 -81.727  0.00  0.00    +0.000 A 
ATOM      5 BR   UNL     1     -57.789 -41.253 -83.308  0.00  0.00    +0.000 Br
ATOM      6  C   UNL     1     -60.064 -42.050 -81.813  0.00  0.00    +0.000 A 
ATOM      7  C   UNL     1     -60.776 -42.400 -80.660  0.00  0.00    +0.000 A 
ATOM      8  C   UNL     1     -60.117 -42.519 -79.436  0.00  0.00    +0.000 A 
ATOM      9 CL   UNL     1     -61.097 -42.885 -78.063  0.00  0.00    +0.000 Cl
ATOM     10  C   UNL     1     -58.733 -42.294 -79.370  0.00  0.00    +0.000 A 
ATOM     11  C   UNL     1     -57.938 -42.478 -78.141  0.00  0.00    +0.000 A 
ATOM     12  O   UNL     1     -58.248 -43.303 -77.290  0.00  0.00    +0.000 OA
ATOM     13  C   UNL     1     -56.679 -41.676 -77.991  0.00  0.00    +0.000 A 
ATOM     14  H   UNL     1     -56.167 -41.218 -81.152  0.00  0.00    +0.000 HD
ENDROOT
BRANCH   1  15
ATOM     15  S   UNL     1     -54.497 -40.483 -79.293  0.00  0.00    +0.000 S 
ATOM     16  O   UNL     1     -54.290 -40.348 -80.777  0.00  0.00    +0.000 OA
BRANCH  15  17
ATOM     17  C   UNL     1     -53.080 -41.405 -78.628  0.00  0.00    +0.000 C 
BRANCH  17  21
ATOM     18  C   UNL     1     -49.487 -40.129 -75.210  0.00  0.00    +0.000 C 
ATOM     19  C   UNL     1     -50.602 -40.303 -76.159  0.00  0.00    +0.000 A 
ATOM     20  C   UNL     1     -50.966 -41.279 -77.055  0.00  0.00    +0.000 A 
ATOM     21  C   UNL     1     -52.207 -40.844 -77.571  0.00  0.00    +0.000 A 
ATOM     22  N   UNL     1     -52.532 -39.641 -77.065  0.00  0.00    +0.000 NA
ATOM     23  O   UNL     1     -51.526 -39.309 -76.181  0.00  0.00    +0.000 OA
ENDBRANCH  17  21
ENDBRANCH  15  17
ENDBRANCH   1  15
BRANCH  13  24
ATOM     24  C   UNL     1     -56.501 -41.089 -76.633  0.00  0.00    +0.000 C 
ATOM     25  O   UNL     1     -57.225 -40.187 -76.248  0.00  0.00    +0.000 OA
BRANCH  24  26
ATOM     26  C   UNL     1     -55.464 -41.650 -75.746  0.00  0.00    +0.000 C 
ATOM     27  C   UNL     1     -55.067 -43.096 -75.892  0.00  0.00    +0.000 C 
ATOM     28  C   UNL     1     -55.813 -42.652 -74.671  0.00  0.00    +0.000 C 
ENDBRANCH  24  26
ENDBRANCH  13  24
TORSDOF 5
ENDMDL
MODEL 12
REMARK VINA RESULT:    -5.988     12.557     14.601
REMARK INTER + INTRA:          -8.612
REMARK INTER:                  -7.646
REMARK INTRA:                  -0.966
REMARK UNBOUND:                -0.873
REMARK  Name = 
REMARK  6 active torsions:
REMARK  status: ('A' for Active; 'I' for Inactive)
REMARK    1  A    between atoms: C_1  and  C_2
REMARK    2  A    between atoms: C_4  and  C_5
REMARK    3  A    between atoms: C_5  and  S_6
REMARK    4  A    between atoms: S_6  and  C_8
REMARK    5  A    between atoms: C_20  and  C_21
REMARK    6  A    between atoms: C_21  and  C_23
REMARK                            x       y       z     vdW  Elec       q    Type
REMARK                         _______ _______ _______ _____ _____    ______ ____
ROOT
ATOM      1  C   UNL     1     -56.707 -38.172 -62.516  0.00  0.00    +0.000 A 
ATOM      2  N   UNL     1     -56.677 -39.519 -62.928  0.00  0.00    +0.000 N 
ATOM      3  C   UNL     1     -55.492 -40.080 -63.479  0.00  0.00    +0.000 A 
ATOM      4  C   UNL     1     -55.259 -41.466 -63.545  0.00  0.00    +0.000 A 
ATOM      5 BR   UNL     1     -56.447 -42.700 -62.730  0.00  0.00    +0.000 Br
ATOM      6  C   UNL     1     -54.128 -41.981 -64.196  0.00  0.00    +0.000 A 
ATOM      7  C   UNL     1     -53.199 -41.104 -64.767  0.00  0.00    +0.000 A 
ATOM      8  C   UNL     1     -53.408 -39.726 -64.712  0.00  0.00    +0.000 A 
ATOM      9 CL   UNL     1     -52.168 -38.728 -65.381  0.00  0.00    +0.000 Cl
ATOM     10  C   UNL     1     -54.561 -39.225 -64.089  0.00  0.00    +0.000 A 
ATOM     11  C   UNL     1     -54.910 -37.791 -64.057  0.00  0.00    +0.000 A 
ATOM     12  O   UNL     1     -54.579 -37.027 -64.955  0.00  0.00    +0.000 OA
ATOM     13  C   UNL     1     -55.759 -37.299 -62.923  0.00  0.00    +0.000 A 
ATOM     14  H   UNL     1     -57.160 -40.140 -62.264  0.00  0.00    +0.000 HD
ENDROOT
BRANCH   1  15
ATOM     15  S   UNL     1     -57.816 -37.899 -61.109  0.00  0.00    +0.000 S 
ATOM     16  O   UNL     1     -56.889 -37.723 -59.937  0.00  0.00    +0.000 OA
BRANCH  15  17
ATOM     17  C   UNL     1     -58.795 -39.399 -60.808  0.00  0.00    +0.000 C 
BRANCH  17  21
ATOM     18  C   UNL     1     -63.292 -40.003 -63.181  0.00  0.00    +0.000 C 
ATOM     19  C   UNL     1     -61.912 -39.927 -62.667  0.00  0.00    +0.000 A 
ATOM     20  C   UNL     1     -61.319 -39.345 -61.572  0.00  0.00    +0.000 A 
ATOM     21  C   UNL     1     -59.967 -39.750 -61.643  0.00  0.00    +0.000 A 
ATOM     22  N   UNL     1     -59.749 -40.473 -62.755  0.00  0.00    +0.000 NA
ATOM     23  O   UNL     1     -60.969 -40.582 -63.390  0.00  0.00    +0.000 OA
ENDBRANCH  17  21
ENDBRANCH  15  17
ENDBRANCH   1  15
BRANCH  13  24
ATOM     24  C   UNL     1     -55.290 -36.010 -62.339  0.00  0.00    +0.000 C 
ATOM     25  O   UNL     1     -54.425 -35.997 -61.481  0.00  0.00    +0.000 OA
BRANCH  24  26
ATOM     26  C   UNL     1     -55.858 -34.749 -62.851  0.00  0.00    +0.000 C 
ATOM     27  C   UNL     1     -56.241 -33.660 -61.882  0.00  0.00    +0.000 C 
ATOM     28  C   UNL     1     -57.310 -34.397 -62.630  0.00  0.00    +0.000 C 
ENDBRANCH  24  26
ENDBRANCH  13  24
TORSDOF 5
ENDMDL
MODEL 13
REMARK VINA RESULT:    -5.963      4.045      5.356
REMARK INTER + INTRA:          -8.579
REMARK INTER:                  -7.559
REMARK INTRA:                  -1.021
REMARK UNBOUND:                -0.873
REMARK  Name = 
REMARK  6 active torsions:
REMARK  status: ('A' for Active; 'I' for Inactive)
REMARK    1  A    between atoms: C_1  and  C_2
REMARK    2  A    between atoms: C_4  and  C_5
REMARK    3  A    between atoms: C_5  and  S_6
REMARK    4  A    between atoms: S_6  and  C_8
REMARK    5  A    between atoms: C_20  and  C_21
REMARK    6  A    between atoms: C_21  and  C_23
REMARK                            x       y       z     vdW  Elec       q    Type
REMARK                         _______ _______ _______ _____ _____    ______ ____
ROOT
ATOM      1  C   UNL     1     -57.184 -41.747 -79.772  0.00  0.00    +0.000 A 
ATOM      2  N   UNL     1     -56.396 -41.603 -80.931  0.00  0.00    +0.000 N 
ATOM      3  C   UNL     1     -54.996 -41.850 -80.890  0.00  0.00    +0.000 A 
ATOM      4  C   UNL     1     -54.228 -42.108 -82.040  0.00  0.00    +0.000 A 
ATOM      5 BR   UNL     1     -55.048 -42.326 -83.737  0.00  0.00    +0.000 Br
ATOM      6  C   UNL     1     -52.834 -42.236 -81.967  0.00  0.00    +0.000 A 
ATOM      7  C   UNL     1     -52.193 -42.134 -80.727  0.00  0.00    +0.000 A 
ATOM      8  C   UNL     1     -52.934 -41.880 -79.573  0.00  0.00    +0.000 A 
ATOM      9 CL   UNL     1     -52.059 -41.844 -78.084  0.00  0.00    +0.000 Cl
ATOM     10  C   UNL     1     -54.325 -41.718 -79.664  0.00  0.00    +0.000 A 
ATOM     11  C   UNL     1     -55.179 -41.364 -78.514  0.00  0.00    +0.000 A 
ATOM     12  O   UNL     1     -54.760 -40.685 -77.585  0.00  0.00    +0.000 OA
ATOM     13  C   UNL     1     -56.616 -41.792 -78.547  0.00  0.00    +0.000 A 
ATOM     14  H   UNL     1     -56.860 -41.986 -81.767  0.00  0.00    +0.000 HD
ENDROOT
BRANCH   1  15
ATOM     15  S   UNL     1     -58.871 -42.295 -80.140  0.00  0.00    +0.000 S 
ATOM     16  O   UNL     1     -58.685 -43.590 -80.884  0.00  0.00    +0.000 OA
BRANCH  15  17
ATOM     17  C   UNL     1     -59.655 -41.120 -81.283  0.00  0.00    +0.000 C 
BRANCH  17  21
ATOM     18  C   UNL     1     -61.927 -37.274 -78.779  0.00  0.00    +0.000 C 
ATOM     19  C   UNL     1     -61.281 -38.255 -79.671  0.00  0.00    +0.000 A 
ATOM     20  C   UNL     1     -60.706 -39.491 -79.494  0.00  0.00    +0.000 A 
ATOM     21  C   UNL     1     -60.370 -39.916 -80.799  0.00  0.00    +0.000 A 
ATOM     22  N   UNL     1     -60.662 -38.959 -81.697  0.00  0.00    +0.000 NA
ATOM     23  O   UNL     1     -61.233 -37.924 -80.986  0.00  0.00    +0.000 OA
ENDBRANCH  17  21
ENDBRANCH  15  17
ENDBRANCH   1  15
BRANCH  13  24
ATOM     24  C   UNL     1     -57.103 -42.354 -77.255  0.00  0.00    +0.000 C 
ATOM     25  O   UNL     1     -56.692 -43.428 -76.851  0.00  0.00    +0.000 OA
BRANCH  24  26
ATOM     26  C   UNL     1     -58.055 -41.564 -76.451  0.00  0.00    +0.000 C 
ATOM     27  C   UNL     1     -58.129 -40.071 -76.643  0.00  0.00    +0.000 C 
ATOM     28  C   UNL     1     -57.577 -40.628 -75.367  0.00  0.00    +0.000 C 
ENDBRANCH  24  26
ENDBRANCH  13  24
TORSDOF 5
ENDMDL
MODEL 14
REMARK VINA RESULT:    -5.769     12.546     15.045
REMARK INTER + INTRA:          -8.328
REMARK INTER:                  -7.644
REMARK INTRA:                  -0.684
REMARK UNBOUND:                -0.873
REMARK  Name = 
REMARK  6 active torsions:
REMARK  status: ('A' for Active; 'I' for Inactive)
REMARK    1  A    between atoms: C_1  and  C_2
REMARK    2  A    between atoms: C_4  and  C_5
REMARK    3  A    between atoms: C_5  and  S_6
REMARK    4  A    between atoms: S_6  and  C_8
REMARK    5  A    between atoms: C_20  and  C_21
REMARK    6  A    between atoms: C_21  and  C_23
REMARK                            x       y       z     vdW  Elec       q    Type
REMARK                         _______ _______ _______ _____ _____    ______ ____
ROOT
ATOM      1  C   UNL     1     -56.915 -38.263 -62.682  0.00  0.00    +0.000 A 
ATOM      2  N   UNL     1     -56.800 -39.600 -63.110  0.00  0.00    +0.000 N 
ATOM      3  C   UNL     1     -55.559 -40.101 -63.592  0.00  0.00    +0.000 A 
ATOM      4  C   UNL     1     -55.261 -41.475 -63.663  0.00  0.00    +0.000 A 
ATOM      5 BR   UNL     1     -56.444 -42.771 -62.944  0.00  0.00    +0.000 Br
ATOM      6  C   UNL     1     -54.071 -41.929 -64.246  0.00  0.00    +0.000 A 
ATOM      7  C   UNL     1     -53.146 -41.004 -64.743  0.00  0.00    +0.000 A 
ATOM      8  C   UNL     1     -53.418 -39.637 -64.682  0.00  0.00    +0.000 A 
ATOM      9 CL   UNL     1     -52.182 -38.576 -65.256  0.00  0.00    +0.000 Cl
ATOM     10  C   UNL     1     -54.629 -39.196 -64.128  0.00  0.00    +0.000 A 
ATOM     11  C   UNL     1     -55.041 -37.780 -64.098  0.00  0.00    +0.000 A 
ATOM     12  O   UNL     1     -54.687 -36.987 -64.961  0.00  0.00    +0.000 OA
ATOM     13  C   UNL     1     -55.982 -37.344 -63.014  0.00  0.00    +0.000 A 
ATOM     14  H   UNL     1     -57.296 -40.252 -62.488  0.00  0.00    +0.000 HD
ENDROOT
BRANCH   1  15
ATOM     15  S   UNL     1     -58.122 -38.061 -61.346  0.00  0.00    +0.000 S 
ATOM     16  O   UNL     1     -58.194 -39.420 -60.705  0.00  0.00    +0.000 OA
BRANCH  15  17
ATOM     17  C   UNL     1     -59.757 -37.707 -62.054  0.00  0.00    +0.000 C 
BRANCH  17  21
ATOM     18  C   UNL     1     -63.735 -35.301 -59.907  0.00  0.00    +0.000 C 
ATOM     19  C   UNL     1     -62.468 -35.861 -60.412  0.00  0.00    +0.000 A 
ATOM     20  C   UNL     1     -62.133 -36.922 -61.219  0.00  0.00    +0.000 A 
ATOM     21  C   UNL     1     -60.732 -36.825 -61.371  0.00  0.00    +0.000 A 
ATOM     22  N   UNL     1     -60.248 -35.807 -60.638  0.00  0.00    +0.000 NA
ATOM     23  O   UNL     1     -61.337 -35.207 -60.042  0.00  0.00    +0.000 OA
ENDBRANCH  17  21
ENDBRANCH  15  17
ENDBRANCH   1  15
BRANCH  13  24
ATOM     24  C   UNL     1     -55.608 -36.046 -62.382  0.00  0.00    +0.000 C 
ATOM     25  O   UNL     1     -54.823 -36.014 -61.450  0.00  0.00    +0.000 OA
BRANCH  24  26
ATOM     26  C   UNL     1     -56.167 -34.798 -62.936  0.00  0.00    +0.000 C 
ATOM     27  C   UNL     1     -56.424 -33.631 -62.019  0.00  0.00    +0.000 C 
ATOM     28  C   UNL     1     -57.580 -34.368 -62.623  0.00  0.00    +0.000 C 
ENDBRANCH  24  26
ENDBRANCH  13  24
TORSDOF 5
ENDMDL
MODEL 15
REMARK VINA RESULT:    -5.756      3.920      4.693
REMARK INTER + INTRA:          -8.313
REMARK INTER:                  -7.757
REMARK INTRA:                  -0.556
REMARK UNBOUND:                -0.873
REMARK  Name = 
REMARK  6 active torsions:
REMARK  status: ('A' for Active; 'I' for Inactive)
REMARK    1  A    between atoms: C_1  and  C_2
REMARK    2  A    between atoms: C_4  and  C_5
REMARK    3  A    between atoms: C_5  and  S_6
REMARK    4  A    between atoms: S_6  and  C_8
REMARK    5  A    between atoms: C_20  and  C_21
REMARK    6  A    between atoms: C_21  and  C_23
REMARK                            x       y       z     vdW  Elec       q    Type
REMARK                         _______ _______ _______ _____ _____    ______ ____
ROOT
ATOM      1  C   UNL     1     -55.138 -41.279 -78.852  0.00  0.00    +0.000 A 
ATOM      2  N   UNL     1     -55.184 -40.699 -80.134  0.00  0.00    +0.000 N 
ATOM      3  C   UNL     1     -54.313 -41.148 -81.164  0.00  0.00    +0.000 A 
ATOM      4  C   UNL     1     -54.552 -40.911 -82.530  0.00  0.00    +0.000 A 
ATOM      5 BR   UNL     1     -56.172 -40.116 -83.117  0.00  0.00    +0.000 Br
ATOM      6  C   UNL     1     -53.613 -41.274 -83.505  0.00  0.00    +0.000 A 
ATOM      7  C   UNL     1     -52.426 -41.910 -83.120  0.00  0.00    +0.000 A 
ATOM      8  C   UNL     1     -52.168 -42.158 -81.772  0.00  0.00    +0.000 A 
ATOM      9 CL   UNL     1     -50.711 -43.011 -81.408  0.00  0.00    +0.000 Cl
ATOM     10  C   UNL     1     -53.100 -41.756 -80.803  0.00  0.00    +0.000 A 
ATOM     11  C   UNL     1     -52.876 -41.898 -79.352  0.00  0.00    +0.000 A 
ATOM     12  O   UNL     1     -51.753 -41.853 -78.865  0.00  0.00    +0.000 OA
ATOM     13  C   UNL     1     -54.078 -42.022 -78.463  0.00  0.00    +0.000 A 
ATOM     14  H   UNL     1     -56.149 -40.532 -80.451  0.00  0.00    +0.000 HD
ENDROOT
BRANCH   1  15
ATOM     15  S   UNL     1     -56.756 -41.297 -78.036  0.00  0.00    +0.000 S 
ATOM     16  O   UNL     1     -56.481 -40.758 -76.659  0.00  0.00    +0.000 OA
BRANCH  15  17
ATOM     17  C   UNL     1     -57.320 -43.013 -77.846  0.00  0.00    +0.000 C 
BRANCH  17  21
ATOM     18  C   UNL     1     -61.987 -45.116 -77.987  0.00  0.00    +0.000 C 
ATOM     19  C   UNL     1     -60.742 -44.333 -77.880  0.00  0.00    +0.000 A 
ATOM     20  C   UNL     1     -59.404 -44.620 -78.023  0.00  0.00    +0.000 A 
ATOM     21  C   UNL     1     -58.757 -43.373 -77.876  0.00  0.00    +0.000 A 
ATOM     22  N   UNL     1     -59.649 -42.409 -77.591  0.00  0.00    +0.000 NA
ATOM     23  O   UNL     1     -60.888 -43.014 -77.597  0.00  0.00    +0.000 OA
ENDBRANCH  17  21
ENDBRANCH  15  17
ENDBRANCH   1  15
BRANCH  13  24
ATOM     24  C   UNL     1     -53.942 -43.071 -77.413  0.00  0.00    +0.000 C 
ATOM     25  O   UNL     1     -54.212 -44.234 -77.661  0.00  0.00    +0.000 OA
BRANCH  24  26
ATOM     26  C   UNL     1     -53.428 -42.687 -76.085  0.00  0.00    +0.000 C 
ATOM     27  C   UNL     1     -53.085 -43.760 -75.084  0.00  0.00    +0.000 C 
ATOM     28  C   UNL     1     -54.264 -42.867 -74.840  0.00  0.00    +0.000 C 
ENDBRANCH  24  26
ENDBRANCH  13  24
TORSDOF 5
ENDMDL
MODEL 16
REMARK VINA RESULT:    -5.704     12.519     15.334
REMARK INTER + INTRA:          -8.245
REMARK INTER:                  -7.490
REMARK INTRA:                  -0.755
REMARK UNBOUND:                -0.873
REMARK  Name = 
REMARK  6 active torsions:
REMARK  status: ('A' for Active; 'I' for Inactive)
REMARK    1  A    between atoms: C_1  and  C_2
REMARK    2  A    between atoms: C_4  and  C_5
REMARK    3  A    between atoms: C_5  and  S_6
REMARK    4  A    between atoms: S_6  and  C_8
REMARK    5  A    between atoms: C_20  and  C_21
REMARK    6  A    between atoms: C_21  and  C_23
REMARK                            x       y       z     vdW  Elec       q    Type
REMARK                         _______ _______ _______ _____ _____    ______ ____
ROOT
ATOM      1  C   UNL     1     -56.733 -38.492 -62.501  0.00  0.00    +0.000 A 
ATOM      2  N   UNL     1     -56.584 -39.809 -62.979  0.00  0.00    +0.000 N 
ATOM      3  C   UNL     1     -55.355 -40.237 -63.551  0.00  0.00    +0.000 A 
ATOM      4  C   UNL     1     -55.001 -41.592 -63.685  0.00  0.00    +0.000 A 
ATOM      5 BR   UNL     1     -56.078 -42.964 -62.938  0.00  0.00    +0.000 Br
ATOM      6  C   UNL     1     -53.830 -41.973 -64.355  0.00  0.00    +0.000 A 
ATOM      7  C   UNL     1     -52.980 -40.991 -64.877  0.00  0.00    +0.000 A 
ATOM      8  C   UNL     1     -53.309 -39.641 -64.754  0.00  0.00    +0.000 A 
ATOM      9 CL   UNL     1     -52.160 -38.506 -65.367  0.00  0.00    +0.000 Cl
ATOM     10  C   UNL     1     -54.502 -39.274 -64.113  0.00  0.00    +0.000 A 
ATOM     11  C   UNL     1     -54.975 -37.880 -64.012  0.00  0.00    +0.000 A 
ATOM     12  O   UNL     1     -54.711 -37.045 -64.869  0.00  0.00    +0.000 OA
ATOM     13  C   UNL     1     -55.864 -37.521 -62.859  0.00  0.00    +0.000 A 
ATOM     14  H   UNL     1     -57.012 -40.502 -62.349  0.00  0.00    +0.000 HD
ENDROOT
BRANCH   1  15
ATOM     15  S   UNL     1     -57.862 -38.387 -61.088  0.00  0.00    +0.000 S 
ATOM     16  O   UNL     1     -58.435 -36.999 -61.175  0.00  0.00    +0.000 OA
BRANCH  15  17
ATOM     17  C   UNL     1     -56.911 -38.487 -59.543  0.00  0.00    +0.000 C 
BRANCH  17  21
ATOM     18  C   UNL     1     -55.094 -43.205 -58.733  0.00  0.00    +0.000 C 
ATOM     19  C   UNL     1     -55.464 -41.781 -58.834  0.00  0.00    +0.000 A 
ATOM     20  C   UNL     1     -56.372 -41.068 -59.581  0.00  0.00    +0.000 A 
ATOM     21  C   UNL     1     -56.263 -39.744 -59.102  0.00  0.00    +0.000 A 
ATOM     22  N   UNL     1     -55.296 -39.656 -58.172  0.00  0.00    +0.000 NA
ATOM     23  O   UNL     1     -54.801 -40.933 -58.008  0.00  0.00    +0.000 OA
ENDBRANCH  17  21
ENDBRANCH  15  17
ENDBRANCH   1  15
BRANCH  13  24
ATOM     24  C   UNL     1     -55.510 -36.227 -62.209  0.00  0.00    +0.000 C 
ATOM     25  O   UNL     1     -54.882 -36.209 -61.165  0.00  0.00    +0.000 OA
BRANCH  24  26
ATOM     26  C   UNL     1     -55.893 -34.968 -62.876  0.00  0.00    +0.000 C 
ATOM     27  C   UNL     1     -56.061 -33.715 -62.055  0.00  0.00    +0.000 C 
ATOM     28  C   UNL     1     -57.261 -34.361 -62.678  0.00  0.00    +0.000 C 
ENDBRANCH  24  26
ENDBRANCH  13  24
TORSDOF 5
ENDMDL
MODEL 17
REMARK VINA RESULT:    -5.654      3.827      6.312
REMARK INTER + INTRA:          -8.181
REMARK INTER:                  -7.802
REMARK INTRA:                  -0.379
REMARK UNBOUND:                -0.873
REMARK  Name = 
REMARK  6 active torsions:
REMARK  status: ('A' for Active; 'I' for Inactive)
REMARK    1  A    between atoms: C_1  and  C_2
REMARK    2  A    between atoms: C_4  and  C_5
REMARK    3  A    between atoms: C_5  and  S_6
REMARK    4  A    between atoms: S_6  and  C_8
REMARK    5  A    between atoms: C_20  and  C_21
REMARK    6  A    between atoms: C_21  and  C_23
REMARK                            x       y       z     vdW  Elec       q    Type
REMARK                         _______ _______ _______ _____ _____    ______ ____
ROOT
ATOM      1  C   UNL     1     -55.375 -42.328 -77.679  0.00  0.00    +0.000 A 
ATOM      2  N   UNL     1     -56.691 -42.752 -77.411  0.00  0.00    +0.000 N 
ATOM      3  C   UNL     1     -57.271 -42.546 -76.129  0.00  0.00    +0.000 A 
ATOM      4  C   UNL     1     -58.660 -42.577 -75.901  0.00  0.00    +0.000 A 
ATOM      5 BR   UNL     1     -59.886 -42.722 -77.341  0.00  0.00    +0.000 Br
ATOM      6  C   UNL     1     -59.184 -42.479 -74.604  0.00  0.00    +0.000 A 
ATOM      7  C   UNL     1     -58.316 -42.319 -73.517  0.00  0.00    +0.000 A 
ATOM      8  C   UNL     1     -56.937 -42.283 -73.719  0.00  0.00    +0.000 A 
ATOM      9 CL   UNL     1     -55.958 -42.010 -72.323  0.00  0.00    +0.000 Cl
ATOM     10  C   UNL     1     -56.423 -42.419 -75.018  0.00  0.00    +0.000 A 
ATOM     11  C   UNL     1     -54.980 -42.479 -75.319  0.00  0.00    +0.000 A 
ATOM     12  O   UNL     1     -54.174 -42.943 -74.522  0.00  0.00    +0.000 OA
ATOM     13  C   UNL     1     -54.524 -42.024 -76.674  0.00  0.00    +0.000 A 
ATOM     14  H   UNL     1     -57.331 -42.554 -78.192  0.00  0.00    +0.000 HD
ENDROOT
BRANCH   1  15
ATOM     15  S   UNL     1     -55.143 -41.824 -79.404  0.00  0.00    +0.000 S 
ATOM     16  O   UNL     1     -54.844 -40.352 -79.323  0.00  0.00    +0.000 OA
BRANCH  15  17
ATOM     17  C   UNL     1     -56.709 -42.012 -80.306  0.00  0.00    +0.000 C 
BRANCH  17  21
ATOM     18  C   UNL     1     -56.517 -39.798 -84.919  0.00  0.00    +0.000 C 
ATOM     19  C   UNL     1     -56.752 -40.527 -83.659  0.00  0.00    +0.000 A 
ATOM     20  C   UNL     1     -56.047 -40.690 -82.490  0.00  0.00    +0.000 A 
ATOM     21  C   UNL     1     -56.907 -41.442 -81.659  0.00  0.00    +0.000 A 
ATOM     22  N   UNL     1     -58.031 -41.771 -82.318  0.00  0.00    +0.000 NA
ATOM     23  O   UNL     1     -57.930 -41.195 -83.568  0.00  0.00    +0.000 OA
ENDBRANCH  17  21
ENDBRANCH  15  17
ENDBRANCH   1  15
BRANCH  13  24
ATOM     24  C   UNL     1     -53.302 -41.172 -76.640  0.00  0.00    +0.000 C 
ATOM     25  O   UNL     1     -53.392 -39.964 -76.504  0.00  0.00    +0.000 OA
BRANCH  24  26
ATOM     26  C   UNL     1     -51.980 -41.820 -76.727  0.00  0.00    +0.000 C 
ATOM     27  C   UNL     1     -50.740 -41.018 -76.427  0.00  0.00    +0.000 C 
ATOM     28  C   UNL     1     -51.008 -41.472 -77.830  0.00  0.00    +0.000 C 
ENDBRANCH  24  26
ENDBRANCH  13  24
TORSDOF 5
ENDMDL
MODEL 18
REMARK VINA RESULT:    -5.335     10.097     12.411
REMARK INTER + INTRA:          -7.768
REMARK INTER:                  -6.770
REMARK INTRA:                  -0.998
REMARK UNBOUND:                -0.873
REMARK  Name = 
REMARK  6 active torsions:
REMARK  status: ('A' for Active; 'I' for Inactive)
REMARK    1  A    between atoms: C_1  and  C_2
REMARK    2  A    between atoms: C_4  and  C_5
REMARK    3  A    between atoms: C_5  and  S_6
REMARK    4  A    between atoms: S_6  and  C_8
REMARK    5  A    between atoms: C_20  and  C_21
REMARK    6  A    between atoms: C_21  and  C_23
REMARK                            x       y       z     vdW  Elec       q    Type
REMARK                         _______ _______ _______ _____ _____    ______ ____
ROOT
ATOM      1  C   UNL     1     -65.969 -43.544 -70.611  0.00  0.00    +0.000 A 
ATOM      2  N   UNL     1     -67.146 -43.570 -71.384  0.00  0.00    +0.000 N 
ATOM      3  C   UNL     1     -67.098 -43.911 -72.763  0.00  0.00    +0.000 A 
ATOM      4  C   UNL     1     -68.227 -44.333 -73.490  0.00  0.00    +0.000 A 
ATOM      5 BR   UNL     1     -69.884 -44.654 -72.624  0.00  0.00    +0.000 Br
ATOM      6  C   UNL     1     -68.160 -44.553 -74.873  0.00  0.00    +0.000 A 
ATOM      7  C   UNL     1     -66.943 -44.378 -75.543  0.00  0.00    +0.000 A 
ATOM      8  C   UNL     1     -65.810 -43.962 -74.844  0.00  0.00    +0.000 A 
ATOM      9 CL   UNL     1     -64.344 -43.845 -75.748  0.00  0.00    +0.000 Cl
ATOM     10  C   UNL     1     -65.900 -43.710 -73.466  0.00  0.00    +0.000 A 
ATOM     11  C   UNL     1     -64.779 -43.186 -72.661  0.00  0.00    +0.000 A 
ATOM     12  O   UNL     1     -63.926 -42.453 -73.145  0.00  0.00    +0.000 OA
ATOM     13  C   UNL     1     -64.752 -43.512 -71.197  0.00  0.00    +0.000 A 
ATOM     14  H   UNL     1     -67.935 -43.997 -70.879  0.00  0.00    +0.000 HD
ENDROOT
BRANCH   1  15
ATOM     15  S   UNL     1     -66.261 -44.003 -68.882  0.00  0.00    +0.000 S 
ATOM     16  O   UNL     1     -67.643 -44.598 -68.886  0.00  0.00    +0.000 OA
BRANCH  15  17
ATOM     17  C   UNL     1     -66.318 -42.504 -67.857  0.00  0.00    +0.000 C 
BRANCH  17  21
ATOM     18  C   UNL     1     -63.429 -38.434 -69.002  0.00  0.00    +0.000 C 
ATOM     19  C   UNL     1     -64.145 -39.619 -68.494  0.00  0.00    +0.000 A 
ATOM     20  C   UNL     1     -65.239 -40.340 -68.910  0.00  0.00    +0.000 A 
ATOM     21  C   UNL     1     -65.321 -41.419 -68.002  0.00  0.00    +0.000 A 
ATOM     22  N   UNL     1     -64.372 -41.310 -67.055  0.00  0.00    +0.000 NA
ATOM     23  O   UNL     1     -63.639 -40.185 -67.369  0.00  0.00    +0.000 OA
ENDBRANCH  17  21
ENDBRANCH  15  17
ENDBRANCH   1  15
BRANCH  13  24
ATOM     24  C   UNL     1     -63.406 -43.910 -70.697  0.00  0.00    +0.000 C 
ATOM     25  O   UNL     1     -62.948 -45.009 -70.956  0.00  0.00    +0.000 OA
BRANCH  24  26
ATOM     26  C   UNL     1     -62.617 -42.932 -69.923  0.00  0.00    +0.000 C 
ATOM     27  C   UNL     1     -62.275 -41.601 -70.542  0.00  0.00    +0.000 C 
ATOM     28  C   UNL     1     -61.191 -42.606 -70.297  0.00  0.00    +0.000 C 
ENDBRANCH  24  26
ENDBRANCH  13  24
TORSDOF 5
ENDMDL
MODEL 19
REMARK VINA RESULT:    -5.262      9.811     13.021
REMARK INTER + INTRA:          -7.674
REMARK INTER:                  -6.546
REMARK INTRA:                  -1.128
REMARK UNBOUND:                -0.873
REMARK  Name = 
REMARK  6 active torsions:
REMARK  status: ('A' for Active; 'I' for Inactive)
REMARK    1  A    between atoms: C_1  and  C_2
REMARK    2  A    between atoms: C_4  and  C_5
REMARK    3  A    between atoms: C_5  and  S_6
REMARK    4  A    between atoms: S_6  and  C_8
REMARK    5  A    between atoms: C_20  and  C_21
REMARK    6  A    between atoms: C_21  and  C_23
REMARK                            x       y       z     vdW  Elec       q    Type
REMARK                         _______ _______ _______ _____ _____    ______ ____
ROOT
ATOM      1  C   UNL     1     -66.234 -41.319 -70.609  0.00  0.00    +0.000 A 
ATOM      2  N   UNL     1     -65.131 -41.538 -71.457  0.00  0.00    +0.000 N 
ATOM      3  C   UNL     1     -63.837 -41.771 -70.915  0.00  0.00    +0.000 A 
ATOM      4  C   UNL     1     -62.794 -42.370 -71.646  0.00  0.00    +0.000 A 
ATOM      5 BR   UNL     1     -63.097 -43.084 -73.377  0.00  0.00    +0.000 Br
ATOM      6  C   UNL     1     -61.503 -42.480 -71.111  0.00  0.00    +0.000 A 
ATOM      7  C   UNL     1     -61.248 -42.012 -69.817  0.00  0.00    +0.000 A 
ATOM      8  C   UNL     1     -62.266 -41.416 -69.072  0.00  0.00    +0.000 A 
ATOM      9 CL   UNL     1     -61.868 -40.939 -67.461  0.00  0.00    +0.000 Cl
ATOM     10  C   UNL     1     -63.545 -41.280 -69.633  0.00  0.00    +0.000 A 
ATOM     11  C   UNL     1     -64.659 -40.588 -68.956  0.00  0.00    +0.000 A 
ATOM     12  O   UNL     1     -64.466 -39.664 -68.176  0.00  0.00    +0.000 OA
ATOM     13  C   UNL     1     -66.059 -40.997 -69.309  0.00  0.00    +0.000 A 
ATOM     14  H   UNL     1     -65.364 -42.152 -72.249  0.00  0.00    +0.000 HD
ENDROOT
BRANCH   1  15
ATOM     15  S   UNL     1     -67.785 -41.942 -71.310  0.00  0.00    +0.000 S 
ATOM     16  O   UNL     1     -67.356 -42.721 -72.523  0.00  0.00    +0.000 OA
BRANCH  15  17
ATOM     17  C   UNL     1     -68.792 -40.545 -71.890  0.00  0.00    +0.000 C 
BRANCH  17  21
ATOM     18  C   UNL     1     -70.626 -36.746 -68.988  0.00  0.00    +0.000 C 
ATOM     19  C   UNL     1     -70.272 -37.947 -69.766  0.00  0.00    +0.000 A 
ATOM     20  C   UNL     1     -69.267 -38.268 -70.647  0.00  0.00    +0.000 A 
ATOM     21  C   UNL     1     -69.479 -39.631 -70.949  0.00  0.00    +0.000 A 
ATOM     22  N   UNL     1     -70.590 -40.081 -70.339  0.00  0.00    +0.000 NA
ATOM     23  O   UNL     1     -71.080 -39.025 -69.600  0.00  0.00    +0.000 OA
ENDBRANCH  17  21
ENDBRANCH  15  17
ENDBRANCH   1  15
BRANCH  13  24
ATOM     24  C   UNL     1     -66.958 -41.138 -68.128  0.00  0.00    +0.000 C 
ATOM     25  O   UNL     1     -67.876 -40.356 -67.952  0.00  0.00    +0.000 OA
BRANCH  24  26
ATOM     26  C   UNL     1     -66.746 -42.268 -67.204  0.00  0.00    +0.000 C 
ATOM     27  C   UNL     1     -66.312 -43.603 -67.753  0.00  0.00    +0.000 C 
ATOM     28  C   UNL     1     -67.689 -43.448 -67.182  0.00  0.00    +0.000 C 
ENDBRANCH  24  26
ENDBRANCH  13  24
TORSDOF 5
ENDMDL
MODEL 20
REMARK VINA RESULT:    -5.094      4.324      7.468
REMARK INTER + INTRA:          -7.457
REMARK INTER:                  -6.735
REMARK INTRA:                  -0.722
REMARK UNBOUND:                -0.873
REMARK  Name = 
REMARK  6 active torsions:
REMARK  status: ('A' for Active; 'I' for Inactive)
REMARK    1  A    between atoms: C_1  and  C_2
REMARK    2  A    between atoms: C_4  and  C_5
REMARK    3  A    between atoms: C_5  and  S_6
REMARK    4  A    between atoms: S_6  and  C_8
REMARK    5  A    between atoms: C_20  and  C_21
REMARK    6  A    between atoms: C_21  and  C_23
REMARK                            x       y       z     vdW  Elec       q    Type
REMARK                         _______ _______ _______ _____ _____    ______ ____
ROOT
ATOM      1  C   UNL     1     -56.069 -42.165 -78.963  0.00  0.00    +0.000 A 
ATOM      2  N   UNL     1     -56.922 -42.076 -80.080  0.00  0.00    +0.000 N 
ATOM      3  C   UNL     1     -58.334 -42.084 -79.915  0.00  0.00    +0.000 A 
ATOM      4  C   UNL     1     -59.225 -41.617 -80.900  0.00  0.00    +0.000 A 
ATOM      5 BR   UNL     1     -58.589 -40.766 -82.471  0.00  0.00    +0.000 Br
ATOM      6  C   UNL     1     -60.612 -41.745 -80.742  0.00  0.00    +0.000 A 
ATOM      7  C   UNL     1     -61.126 -42.321 -79.574  0.00  0.00    +0.000 A 
ATOM      8  C   UNL     1     -60.263 -42.789 -78.584  0.00  0.00    +0.000 A 
ATOM      9 CL   UNL     1     -60.996 -43.416 -77.152  0.00  0.00    +0.000 Cl
ATOM     10  C   UNL     1     -58.876 -42.688 -78.770  0.00  0.00    +0.000 A 
ATOM     11  C   UNL     1     -57.887 -43.231 -77.818  0.00  0.00    +0.000 A 
ATOM     12  O   UNL     1     -58.125 -44.218 -77.133  0.00  0.00    +0.000 OA
ATOM     13  C   UNL     1     -56.534 -42.585 -77.766  0.00  0.00    +0.000 A 
ATOM     14  H   UNL     1     -56.589 -41.388 -80.770  0.00  0.00    +0.000 HD
ENDROOT
BRANCH   1  15
ATOM     15  S   UNL     1     -54.514 -41.265 -79.200  0.00  0.00    +0.000 S 
ATOM     16  O   UNL     1     -54.806 -39.882 -78.686  0.00  0.00    +0.000 OA
BRANCH  15  17
ATOM     17  C   UNL     1     -54.162 -41.121 -80.977  0.00  0.00    +0.000 C 
BRANCH  17  21
ATOM     18  C   UNL     1     -50.171 -42.631 -83.806  0.00  0.00    +0.000 C 
ATOM     19  C   UNL     1     -51.207 -42.264 -82.824  0.00  0.00    +0.000 A 
ATOM     20  C   UNL     1     -52.417 -41.615 -82.892  0.00  0.00    +0.000 A 
ATOM     21  C   UNL     1     -52.936 -41.692 -81.580  0.00  0.00    +0.000 A 
ATOM     22  N   UNL     1     -52.054 -42.290 -80.759  0.00  0.00    +0.000 NA
ATOM     23  O   UNL     1     -50.977 -42.647 -81.542  0.00  0.00    +0.000 OA
ENDBRANCH  17  21
ENDBRANCH  15  17
ENDBRANCH   1  15
BRANCH  13  24
ATOM     24  C   UNL     1     -56.026 -42.371 -76.381  0.00  0.00    +0.000 C 
ATOM     25  O   UNL     1     -56.380 -41.400 -75.734  0.00  0.00    +0.000 OA
BRANCH  24  26
ATOM     26  C   UNL     1     -55.125 -43.379 -75.789  0.00  0.00    +0.000 C 
ATOM     27  C   UNL     1     -54.107 -42.952 -74.763  0.00  0.00    +0.000 C 
ATOM     28  C   UNL     1     -53.651 -43.400 -76.118  0.00  0.00    +0.000 C 
ENDBRANCH  24  26
ENDBRANCH  13  24
TORSDOF 5
ENDMDL
