REMARK VINA RESULT:    -4.963     15.711     16.716
REMARK INTER + INTRA:          -6.927
REMARK INTER:                  -6.322
REMARK INTRA:                  -0.605
REMARK UNBOUND:                -0.804
REMARK  Name = 
REMARK  6 active torsions:
REMARK  status: ('A' for Active; 'I' for Inactive)
REMARK    1  A    between atoms: C_1  and  C_2
REMARK    2  A    between atoms: C_2  and  C_4
REMARK    3  A    between atoms: C_5  and  S_6
REMARK    4  A    between atoms: S_6  and  C_8
REMARK    5  A    between atoms: C_8  and  C_9
REMARK    6  A    between atoms: C_11  and  C_12
REMARK                            x       y       z     vdW  Elec       q    Type
REMARK                         _______ _______ _______ _____ _____    ______ ____
ROOT
ATOM      1  C   UNL     1     -60.030 -42.681 -79.023  0.00  0.00    +0.000 A 
ATOM      2  C   UNL     1     -59.695 -41.500 -78.459  0.00  0.00    +0.000 A 
ATOM      3  N   UNL     1     -60.375 -40.326 -78.709  0.00  0.00    +0.000 N 
ATOM      4  C   UNL     1     -61.437 -40.231 -79.621  0.00  0.00    +0.000 A 
ATOM      5  C   UNL     1     -62.151 -39.029 -79.776  0.00  0.00    +0.000 A 
ATOM      6 BR   UNL     1     -61.659 -37.470 -78.808  0.00  0.00    +0.000 Br
ATOM      7  C   UNL     1     -63.247 -38.950 -80.631  0.00  0.00    +0.000 A 
ATOM      8  C   UNL     1     -63.645 -40.075 -81.346  0.00  0.00    +0.000 A 
ATOM      9  C   UNL     1     -62.965 -41.289 -81.194  0.00  0.00    +0.000 A 
ATOM     10 CL   UNL     1     -63.576 -42.601 -82.142  0.00  0.00    +0.000 Cl
ATOM     11  C   UNL     1     -61.874 -41.378 -80.309  0.00  0.00    +0.000 A 
ATOM     12  C   UNL     1     -61.119 -42.637 -80.063  0.00  0.00    +0.000 A 
ATOM     13  O   UNL     1     -61.352 -43.636 -80.733  0.00  0.00    +0.000 OA
ATOM     14  H   UNL     1     -59.867 -39.463 -78.522  0.00  0.00    +0.000 HD
ENDROOT
BRANCH   1  16
ATOM     15  C   UNL     1     -58.203 -44.444 -79.537  0.00  0.00    +0.000 C 
ATOM     16  C   UNL     1     -59.386 -44.000 -78.709  0.00  0.00    +0.000 C 
ATOM     17  O   UNL     1     -59.819 -44.739 -77.820  0.00  0.00    +0.000 OA
ENDBRANCH   1  16
BRANCH   2  18
ATOM     18  S   UNL     1     -58.210 -41.341 -77.405  0.00  0.00    +0.000 S 
ATOM     19  O   UNL     1     -58.008 -39.853 -77.306  0.00  0.00    +0.000 OA
BRANCH  18  20
ATOM     20  C   UNL     1     -58.931 -41.857 -75.807  0.00  0.00    +0.000 C 
BRANCH  20  21
ATOM     21  C   UNL     1     -57.979 -41.660 -74.674  0.00  0.00    +0.000 A 
ATOM     22  C   UNL     1     -58.163 -40.935 -73.470  0.00  0.00    +0.000 A 
ATOM     23  C   UNL     1     -57.015 -41.162 -72.751  0.00  0.00    +0.000 A 
ATOM     24  C   UNL     1     -56.527 -40.743 -71.423  0.00  0.00    +0.000 C 
ATOM     25  O   UNL     1     -56.191 -41.966 -73.472  0.00  0.00    +0.000 OA
ATOM     26  N   UNL     1     -56.794 -42.287 -74.676  0.00  0.00    +0.000 NA
ENDBRANCH  20  21
ENDBRANCH  18  20
ENDBRANCH   2  18
TORSDOF 4
