REMARK VINA RESULT:    -6.346      3.128      5.419
REMARK INTER + INTRA:          -8.671
REMARK INTER:                  -7.920
REMARK INTRA:                  -0.751
REMARK UNBOUND:                -0.841
REMARK  Name = 
REMARK  6 active torsions:
REMARK  status: ('A' for Active; 'I' for Inactive)
REMARK    1  A    between atoms: C_1  and  C_2
REMARK    2  A    between atoms: C_2  and  C_4
REMARK    3  A    between atoms: C_5  and  S_6
REMARK    4  A    between atoms: S_6  and  C_8
REMARK    5  A    between atoms: C_8  and  C_9
REMARK    6  A    between atoms: C_11  and  C_12
REMARK                            x       y       z     vdW  Elec       q    Type
REMARK                         _______ _______ _______ _____ _____    ______ ____
ROOT
ATOM      1  C   UNL     1     -55.097 -40.989 -63.904  0.00  0.00    +0.000 A 
ATOM      2  C   UNL     1     -55.442 -42.104 -63.222  0.00  0.00    +0.000 A 
ATOM      3  N   UNL     1     -54.552 -43.112 -62.906  0.00  0.00    +0.000 N 
ATOM      4  C   UNL     1     -53.235 -43.143 -63.391  0.00  0.00    +0.000 A 
ATOM      5  C   UNL     1     -52.378 -44.216 -63.075  0.00  0.00    +0.000 A 
ATOM      6 BR   UNL     1     -52.995 -45.688 -62.045  0.00  0.00    +0.000 Br
ATOM      7  C   UNL     1     -51.057 -44.230 -63.510  0.00  0.00    +0.000 A 
ATOM      8  C   UNL     1     -50.569 -43.162 -64.261  0.00  0.00    +0.000 A 
ATOM      9  C   UNL     1     -51.395 -42.073 -64.566  0.00  0.00    +0.000 A 
ATOM     10 CL   UNL     1     -50.649 -40.833 -65.513  0.00  0.00    +0.000 Cl
ATOM     11  C   UNL     1     -52.729 -42.050 -64.114  0.00  0.00    +0.000 A 
ATOM     12  C   UNL     1     -53.670 -40.924 -64.388  0.00  0.00    +0.000 A 
ATOM     13  O   UNL     1     -53.295 -39.959 -65.044  0.00  0.00    +0.000 OA
ATOM     14  H   UNL     1     -54.973 -44.026 -62.728  0.00  0.00    +0.000 HD
ENDROOT
BRANCH   1  16
ATOM     15  C   UNL     1     -56.030 -38.615 -63.376  0.00  0.00    +0.000 C 
ATOM     16  C   UNL     1     -56.043 -39.863 -64.231  0.00  0.00    +0.000 C 
ATOM     17  O   UNL     1     -56.826 -39.930 -65.175  0.00  0.00    +0.000 OA
ENDBRANCH   1  16
BRANCH   2  18
ATOM     18  S   UNL     1     -57.178 -42.454 -62.790  0.00  0.00    +0.000 S 
ATOM     19  O   UNL     1     -57.127 -43.861 -62.257  0.00  0.00    +0.000 OA
BRANCH  18  20
ATOM     20  C   UNL     1     -57.344 -41.366 -61.330  0.00  0.00    +0.000 C 
BRANCH  20  21
ATOM     21  C   UNL     1     -56.950 -42.052 -60.063  0.00  0.00    +0.000 A 
ATOM     22  C   UNL     1     -55.665 -42.408 -59.576  0.00  0.00    +0.000 A 
ATOM     23  C   UNL     1     -55.907 -43.011 -58.366  0.00  0.00    +0.000 A 
ATOM     24  C   UNL     1     -55.064 -43.665 -57.349  0.00  0.00    +0.000 C 
ATOM     25  O   UNL     1     -57.242 -42.978 -58.113  0.00  0.00    +0.000 OA
ATOM     26  N   UNL     1     -57.899 -42.372 -59.169  0.00  0.00    +0.000 NA
ENDBRANCH  20  21
ENDBRANCH  18  20
ENDBRANCH   2  18
TORSDOF 4
