REMARK VINA RESULT:    -7.822      0.000      0.000
REMARK INTER + INTRA:         -11.455
REMARK INTER:                 -10.109
REMARK INTRA:                  -1.347
REMARK UNBOUND:                -1.347
REMARK  Name = 
REMARK  6 active torsions:
REMARK  status: ('A' for Active; 'I' for Inactive)
REMARK    1  A    between atoms: C_1  and  C_2
REMARK    2  A    between atoms: C_2  and  C_4
REMARK    3  A    between atoms: C_5  and  S_6
REMARK    4  A    between atoms: S_6  and  C_8
REMARK    5  A    between atoms: C_8  and  C_9
REMARK    6  A    between atoms: C_13  and  C_14
REMARK                            x       y       z     vdW  Elec       q    Type
REMARK                         _______ _______ _______ _____ _____    ______ ____
ROOT
ATOM      1  C   UNL     1     -55.508 -42.841 -62.702  0.00  0.00    +0.000 A 
ATOM      2  C   UNL     1     -55.261 -41.650 -63.296  0.00  0.00    +0.000 A 
ATOM      3  N   UNL     1     -54.069 -41.359 -63.935  0.00  0.00    +0.000 N 
ATOM      4  C   UNL     1     -52.956 -42.220 -63.907  0.00  0.00    +0.000 A 
ATOM      5  C   UNL     1     -51.761 -41.884 -64.568  0.00  0.00    +0.000 A 
ATOM      6 BR   UNL     1     -51.569 -40.214 -65.452  0.00  0.00    +0.000 Br
ATOM      7  C   UNL     1     -50.680 -42.765 -64.597  0.00  0.00    +0.000 A 
ATOM      8  C   UNL     1     -50.781 -44.001 -63.964  0.00  0.00    +0.000 A 
ATOM      9  C   UNL     1     -51.962 -44.367 -63.314  0.00  0.00    +0.000 A 
ATOM     10 CL   UNL     1     -51.932 -45.928 -62.565  0.00  0.00    +0.000 Cl
ATOM     11  C   UNL     1     -53.065 -43.486 -63.306  0.00  0.00    +0.000 A 
ATOM     12  C   UNL     1     -54.367 -43.821 -62.672  0.00  0.00    +0.000 A 
ATOM     13  O   UNL     1     -54.501 -44.893 -62.094  0.00  0.00    +0.000 OA
ATOM     14  H   UNL     1     -53.860 -40.367 -64.059  0.00  0.00    +0.000 HD
ENDROOT
BRANCH   1  16
ATOM     15  C   UNL     1     -57.783 -44.091 -62.862  0.00  0.00    +0.000 C 
ATOM     16  C   UNL     1     -56.819 -43.234 -62.067  0.00  0.00    +0.000 C 
ATOM     17  O   UNL     1     -57.142 -42.852 -60.944  0.00  0.00    +0.000 OA
ENDBRANCH   1  16
BRANCH   2  18
ATOM     18  S   UNL     1     -56.440 -40.261 -63.138  0.00  0.00    +0.000 S 
ATOM     19  O   UNL     1     -55.597 -39.153 -62.566  0.00  0.00    +0.000 OA
BRANCH  18  20
ATOM     20  C   UNL     1     -56.700 -39.839 -64.903  0.00  0.00    +0.000 C 
BRANCH  20  21
ATOM     21  C   UNL     1     -57.237 -41.006 -65.720  0.00  0.00    +0.000 A 
ATOM     22  C   UNL     1     -58.455 -41.613 -65.379  0.00  0.00    +0.000 A 
ATOM     23  C   UNL     1     -58.946 -42.693 -66.121  0.00  0.00    +0.000 A 
ATOM     24  C   UNL     1     -58.227 -43.191 -67.207  0.00  0.00    +0.000 A 
ATOM     25  C   UNL     1     -57.006 -42.617 -67.553  0.00  0.00    +0.000 A 
ATOM     26  C   UNL     1     -56.509 -41.531 -66.806  0.00  0.00    +0.000 A 
BRANCH  25  27
ATOM     27  C   UNL     1     -56.251 -43.138 -68.660  0.00  0.00    +0.000 C 
ATOM     28  N   UNL     1     -55.649 -43.546 -69.570  0.00  0.00    +0.000 NA
ENDBRANCH  25  27
ENDBRANCH  20  21
ENDBRANCH  18  20
ENDBRANCH   2  18
TORSDOF 5
