REMARK VINA RESULT:    -6.212     14.807     16.312
REMARK INTER + INTRA:          -8.506
REMARK INTER:                  -7.855
REMARK INTRA:                  -0.651
REMARK UNBOUND:                -0.841
REMARK  Name = 
REMARK  6 active torsions:
REMARK  status: ('A' for Active; 'I' for Inactive)
REMARK    1  A    between atoms: C_1  and  C_2
REMARK    2  A    between atoms: C_2  and  C_4
REMARK    3  A    between atoms: C_5  and  S_6
REMARK    4  A    between atoms: S_6  and  C_8
REMARK    5  A    between atoms: C_8  and  C_9
REMARK    6  A    between atoms: C_11  and  C_12
REMARK                            x       y       z     vdW  Elec       q    Type
REMARK                         _______ _______ _______ _____ _____    ______ ____
ROOT
ATOM      1  C   UNL     1     -53.303 -41.584 -77.968  0.00  0.00    +0.000 A 
ATOM      2  C   UNL     1     -54.633 -41.408 -78.131  0.00  0.00    +0.000 A 
ATOM      3  N   UNL     1     -55.284 -41.575 -79.338  0.00  0.00    +0.000 N 
ATOM      4  C   UNL     1     -54.601 -41.801 -80.544  0.00  0.00    +0.000 A 
ATOM      5  C   UNL     1     -55.308 -41.922 -81.757  0.00  0.00    +0.000 A 
ATOM      6 BR   UNL     1     -57.194 -41.713 -81.814  0.00  0.00    +0.000 Br
ATOM      7  C   UNL     1     -54.644 -42.196 -82.948  0.00  0.00    +0.000 A 
ATOM      8  C   UNL     1     -53.261 -42.364 -82.941  0.00  0.00    +0.000 A 
ATOM      9  C   UNL     1     -52.541 -42.273 -81.744  0.00  0.00    +0.000 A 
ATOM     10 CL   UNL     1     -50.832 -42.495 -81.899  0.00  0.00    +0.000 Cl
ATOM     11  C   UNL     1     -53.213 -42.010 -80.534  0.00  0.00    +0.000 A 
ATOM     12  C   UNL     1     -52.520 -41.908 -79.215  0.00  0.00    +0.000 A 
ATOM     13  O   UNL     1     -51.304 -42.047 -79.150  0.00  0.00    +0.000 OA
ATOM     14  H   UNL     1     -56.174 -41.080 -79.426  0.00  0.00    +0.000 HD
ENDROOT
BRANCH   1  16
ATOM     15  C   UNL     1     -52.501 -42.626 -75.718  0.00  0.00    +0.000 C 
ATOM     16  C   UNL     1     -52.579 -41.439 -76.654  0.00  0.00    +0.000 C 
ATOM     17  O   UNL     1     -52.049 -40.382 -76.322  0.00  0.00    +0.000 OA
ENDBRANCH   1  16
BRANCH   2  18
ATOM     18  S   UNL     1     -55.679 -40.768 -76.781  0.00  0.00    +0.000 S 
ATOM     19  O   UNL     1     -56.837 -40.138 -77.508  0.00  0.00    +0.000 OA
BRANCH  18  20
ATOM     20  C   UNL     1     -56.303 -42.353 -76.115  0.00  0.00    +0.000 C 
BRANCH  20  21
ATOM     21  C   UNL     1     -57.036 -42.178 -74.826  0.00  0.00    +0.000 A 
ATOM     22  C   UNL     1     -58.414 -41.939 -74.582  0.00  0.00    +0.000 A 
ATOM     23  C   UNL     1     -58.517 -41.867 -73.214  0.00  0.00    +0.000 A 
ATOM     24  C   UNL     1     -59.617 -41.592 -72.273  0.00  0.00    +0.000 C 
ATOM     25  O   UNL     1     -57.296 -42.096 -72.665  0.00  0.00    +0.000 OA
ATOM     26  N   UNL     1     -56.366 -42.298 -73.669  0.00  0.00    +0.000 NA
ENDBRANCH  20  21
ENDBRANCH  18  20
ENDBRANCH   2  18
TORSDOF 4
