REMARK VINA RESULT:    -5.212     11.231     14.236
REMARK INTER + INTRA:          -7.287
REMARK INTER:                  -6.353
REMARK INTRA:                  -0.934
REMARK UNBOUND:                -0.856
REMARK  Name = 
REMARK  6 active torsions:
REMARK  status: ('A' for Active; 'I' for Inactive)
REMARK    1  A    between atoms: C_1  and  C_2
REMARK    2  A    between atoms: C_2  and  C_4
REMARK    3  A    between atoms: C_5  and  S_6
REMARK    4  A    between atoms: S_6  and  C_8
REMARK    5  A    between atoms: C_8  and  C_9
REMARK    6  A    between atoms: C_11  and  C_12
REMARK                            x       y       z     vdW  Elec       q    Type
REMARK                         _______ _______ _______ _____ _____    ______ ____
ROOT
ATOM      1  C   UNL     1     -66.052 -47.220 -56.621  0.00  0.00    +0.000 A 
ATOM      2  C   UNL     1     -65.316 -46.246 -56.042  0.00  0.00    +0.000 A 
ATOM      3  N   UNL     1     -64.710 -46.400 -54.810  0.00  0.00    +0.000 N 
ATOM      4  C   UNL     1     -64.890 -47.535 -54.003  0.00  0.00    +0.000 A 
ATOM      5  C   UNL     1     -64.225 -47.661 -52.773  0.00  0.00    +0.000 A 
ATOM      6 BR   UNL     1     -63.112 -46.265 -52.119  0.00  0.00    +0.000 Br
ATOM      7  C   UNL     1     -64.355 -48.815 -51.997  0.00  0.00    +0.000 A 
ATOM      8  C   UNL     1     -65.158 -49.857 -52.444  0.00  0.00    +0.000 A 
ATOM      9  C   UNL     1     -65.824 -49.764 -53.668  0.00  0.00    +0.000 A 
ATOM     10 CL   UNL     1     -66.809 -51.127 -54.072  0.00  0.00    +0.000 Cl
ATOM     11  C   UNL     1     -65.664 -48.612 -54.466  0.00  0.00    +0.000 A 
ATOM     12  C   UNL     1     -66.265 -48.475 -55.814  0.00  0.00    +0.000 A 
ATOM     13  O   UNL     1     -66.942 -49.387 -56.269  0.00  0.00    +0.000 OA
ATOM     14  H   UNL     1     -64.360 -45.562 -54.351  0.00  0.00    +0.000 HD
ENDROOT
BRANCH   1  16
ATOM     15  C   UNL     1     -65.799 -47.503 -59.192  0.00  0.00    +0.000 C 
ATOM     16  C   UNL     1     -66.655 -47.153 -57.999  0.00  0.00    +0.000 C 
ATOM     17  O   UNL     1     -67.811 -46.790 -58.174  0.00  0.00    +0.000 OA
ENDBRANCH   1  16
BRANCH   2  18
ATOM     18  S   UNL     1     -65.164 -44.587 -56.806  0.00  0.00    +0.000 S 
ATOM     19  O   UNL     1     -65.569 -43.644 -55.706  0.00  0.00    +0.000 OA
BRANCH  18  20
ATOM     20  C   UNL     1     -63.343 -44.461 -56.928  0.00  0.00    +0.000 C 
BRANCH  20  21
ATOM     21  C   UNL     1     -62.800 -45.244 -58.078  0.00  0.00    +0.000 A 
ATOM     22  C   UNL     1     -62.589 -44.829 -59.418  0.00  0.00    +0.000 A 
ATOM     23  C   UNL     1     -62.003 -45.913 -60.032  0.00  0.00    +0.000 A 
ATOM     24  C   UNL     1     -61.517 -46.196 -61.397  0.00  0.00    +0.000 C 
ATOM     25  O   UNL     1     -61.866 -46.914 -59.120  0.00  0.00    +0.000 OA
ATOM     26  N   UNL     1     -62.355 -46.494 -57.893  0.00  0.00    +0.000 NA
ENDBRANCH  20  21
ENDBRANCH  18  20
ENDBRANCH   2  18
TORSDOF 4
