REMARK VINA RESULT:    -6.045      4.155      5.651
REMARK INTER + INTRA:          -8.991
REMARK INTER:                  -8.288
REMARK INTRA:                  -0.703
REMARK UNBOUND:                -1.180
REMARK  Name = 
REMARK  6 active torsions:
REMARK  status: ('A' for Active; 'I' for Inactive)
REMARK    1  A    between atoms: C_1  and  C_2
REMARK    2  A    between atoms: C_2  and  C_4
REMARK    3  A    between atoms: C_5  and  S_6
REMARK    4  A    between atoms: S_6  and  C_8
REMARK    5  A    between atoms: C_8  and  C_9
REMARK    6  A    between atoms: C_12  and  C_13
REMARK                            x       y       z     vdW  Elec       q    Type
REMARK                         _______ _______ _______ _____ _____    ______ ____
ROOT
ATOM      1  C   UNL     1     -57.433 -41.766 -78.269  0.00  0.00    +0.000 A 
ATOM      2  C   UNL     1     -56.226 -41.982 -78.829  0.00  0.00    +0.000 A 
ATOM      3  N   UNL     1     -56.010 -41.914 -80.191  0.00  0.00    +0.000 N 
ATOM      4  C   UNL     1     -57.023 -41.699 -81.131  0.00  0.00    +0.000 A 
ATOM      5  C   UNL     1     -56.741 -41.618 -82.507  0.00  0.00    +0.000 A 
ATOM      6 BR   UNL     1     -54.976 -41.856 -83.164  0.00  0.00    +0.000 Br
ATOM      7  C   UNL     1     -57.752 -41.356 -83.433  0.00  0.00    +0.000 A 
ATOM      8  C   UNL     1     -59.061 -41.175 -82.993  0.00  0.00    +0.000 A 
ATOM      9  C   UNL     1     -59.364 -41.243 -81.629  0.00  0.00    +0.000 A 
ATOM     10 CL   UNL     1     -61.031 -41.000 -81.235  0.00  0.00    +0.000 Cl
ATOM     11  C   UNL     1     -58.342 -41.489 -80.692  0.00  0.00    +0.000 A 
ATOM     12  C   UNL     1     -58.581 -41.552 -79.220  0.00  0.00    +0.000 A 
ATOM     13  O   UNL     1     -59.719 -41.471 -78.774  0.00  0.00    +0.000 OA
ATOM     14  H   UNL     1     -55.091 -42.240 -80.510  0.00  0.00    +0.000 HD
ENDROOT
BRANCH   1  16
ATOM     15  C   UNL     1     -57.531 -40.445 -76.046  0.00  0.00    +0.000 C 
ATOM     16  C   UNL     1     -57.696 -41.751 -76.791  0.00  0.00    +0.000 C 
ATOM     17  O   UNL     1     -57.990 -42.776 -76.178  0.00  0.00    +0.000 OA
ENDBRANCH   1  16
BRANCH   2  18
ATOM     18  S   UNL     1     -54.770 -42.543 -77.891  0.00  0.00    +0.000 S 
ATOM     19  O   UNL     1     -54.695 -44.014 -78.215  0.00  0.00    +0.000 OA
BRANCH  18  20
ATOM     20  C   UNL     1     -53.430 -41.705 -78.810  0.00  0.00    +0.000 C 
BRANCH  20  21
ATOM     21  C   UNL     1     -52.449 -40.988 -77.898  0.00  0.00    +0.000 A 
ATOM     22  C   UNL     1     -52.745 -39.719 -77.373  0.00  0.00    +0.000 A 
ATOM     23  C   UNL     1     -51.846 -39.062 -76.526  0.00  0.00    +0.000 A 
ATOM     24  C   UNL     1     -50.640 -39.670 -76.171  0.00  0.00    +0.000 A 
ATOM     25  C   UNL     1     -50.340 -40.940 -76.676  0.00  0.00    +0.000 A 
ATOM     26  C   UNL     1     -51.235 -41.592 -77.533  0.00  0.00    +0.000 A 
BRANCH  24  27
ATOM     27  C   UNL     1     -49.715 -38.997 -75.299  0.00  0.00    +0.000 C 
ATOM     28  N   UNL     1     -48.972 -38.457 -74.592  0.00  0.00    +0.000 NA
ENDBRANCH  24  27
ENDBRANCH  20  21
ENDBRANCH  18  20
ENDBRANCH   2  18
TORSDOF 5
