REMARK VINA RESULT:    -5.907      3.191      5.352
REMARK INTER + INTRA:          -8.428
REMARK INTER:                  -7.219
REMARK INTRA:                  -1.209
REMARK UNBOUND:                -0.794
REMARK  Name = 
REMARK  8 active torsions:
REMARK  status: ('A' for Active; 'I' for Inactive)
REMARK    1  A    between atoms: C_1  and  C_2
REMARK    2  A    between atoms: C_4  and  C_5
REMARK    3  A    between atoms: C_5  and  S_6
REMARK    4  A    between atoms: S_6  and  C_8
REMARK    5  A    between atoms: C_20  and  C_21
REMARK    6  A    between atoms: C_21  and  C_23
REMARK    7  A    between atoms: C_23  and  C_24
REMARK    8  A    between atoms: C_23  and  C_25
REMARK                            x       y       z     vdW  Elec       q    Type
REMARK                         _______ _______ _______ _____ _____    ______ ____
ROOT
ATOM      1  C   UNL     1     -54.719 -42.978 -77.580  0.00  0.00    +0.000 A 
ATOM      2  N   UNL     1     -55.293 -43.780 -78.561  0.00  0.00    +0.000 N 
ATOM      3  C   UNL     1     -54.703 -43.930 -79.831  0.00  0.00    +0.000 A 
ATOM      4  C   UNL     1     -55.003 -45.017 -80.674  0.00  0.00    +0.000 A 
ATOM      5 BR   UNL     1     -56.105 -46.440 -80.074  0.00  0.00    +0.000 Br
ATOM      6  C   UNL     1     -54.463 -45.101 -81.960  0.00  0.00    +0.000 A 
ATOM      7  C   UNL     1     -53.612 -44.101 -82.422  0.00  0.00    +0.000 A 
ATOM      8  C   UNL     1     -53.293 -43.010 -81.594  0.00  0.00    +0.000 A 
ATOM      9 CL   UNL     1     -52.171 -41.872 -82.249  0.00  0.00    +0.000 Cl
ATOM     10  C   UNL     1     -53.843 -42.922 -80.298  0.00  0.00    +0.000 A 
ATOM     11  C   UNL     1     -53.595 -41.797 -79.360  0.00  0.00    +0.000 A 
ATOM     12  O   UNL     1     -53.261 -40.698 -79.793  0.00  0.00    +0.000 OA
ATOM     13  C   UNL     1     -53.787 -42.038 -77.866  0.00  0.00    +0.000 A 
ATOM     14  H   UNL     1     -55.783 -44.606 -78.191  0.00  0.00    +0.000 HD
ENDROOT
BRANCH   1  15
ATOM     15  S   UNL     1     -55.219 -43.511 -75.899  0.00  0.00    +0.000 S 
ATOM     16  O   UNL     1     -56.203 -44.621 -76.152  0.00  0.00    +0.000 OA
BRANCH  15  17
ATOM     17  C   UNL     1     -56.130 -42.066 -75.256  0.00  0.00    +0.000 C 
BRANCH  17  21
ATOM     18  C   UNL     1     -59.821 -40.794 -78.655  0.00  0.00    +0.000 C 
ATOM     19  C   UNL     1     -58.712 -40.957 -77.690  0.00  0.00    +0.000 A 
ATOM     20  C   UNL     1     -58.257 -41.984 -76.894  0.00  0.00    +0.000 A 
ATOM     21  C   UNL     1     -57.111 -41.458 -76.230  0.00  0.00    +0.000 A 
ATOM     22  N   UNL     1     -56.917 -40.180 -76.600  0.00  0.00    +0.000 NA
ATOM     23  O   UNL     1     -57.912 -39.876 -77.510  0.00  0.00    +0.000 OA
ENDBRANCH  17  21
ENDBRANCH  15  17
ENDBRANCH   1  15
BRANCH  13  24
ATOM     24  C   UNL     1     -52.904 -41.242 -76.931  0.00  0.00    +0.000 C 
ATOM     25  O   UNL     1     -53.235 -40.110 -76.580  0.00  0.00    +0.000 OA
BRANCH  24  26
ATOM     26  C   UNL     1     -51.562 -41.809 -76.466  0.00  0.00    +0.000 C 
ATOM     27  C   UNL     1     -50.547 -40.703 -76.187  0.00  0.00    +0.000 C 
ATOM     28  C   UNL     1     -51.716 -42.711 -75.238  0.00  0.00    +0.000 C 
ENDBRANCH  24  26
ENDBRANCH  13  24
TORSDOF 5
