REMARK VINA RESULT:    -5.475      4.248      7.829
REMARK INTER + INTRA:          -7.425
REMARK INTER:                  -6.855
REMARK INTRA:                  -0.570
REMARK UNBOUND:                -0.670
REMARK  Name = 
REMARK  6 active torsions:
REMARK  status: ('A' for Active; 'I' for Inactive)
REMARK    1  A    between atoms: C_1  and  C_2
REMARK    2  A    between atoms: C_2  and  C_4
REMARK    3  A    between atoms: C_5  and  S_6
REMARK    4  A    between atoms: S_6  and  C_8
REMARK    5  A    between atoms: C_8  and  C_9
REMARK    6  A    between atoms: C_11  and  C_12
REMARK                            x       y       z     vdW  Elec       q    Type
REMARK                         _______ _______ _______ _____ _____    ______ ____
ROOT
ATOM      1  C   UNL     1     -56.382 -42.055 -75.840  0.00  0.00    +0.000 A 
ATOM      2  C   UNL     1     -56.955 -41.770 -77.032  0.00  0.00    +0.000 A 
ATOM      3  N   UNL     1     -56.235 -41.623 -78.202  0.00  0.00    +0.000 N 
ATOM      4  C   UNL     1     -54.831 -41.623 -78.239  0.00  0.00    +0.000 A 
ATOM      5  C   UNL     1     -54.138 -41.442 -79.452  0.00  0.00    +0.000 A 
ATOM      6 BR   UNL     1     -55.075 -41.105 -81.069  0.00  0.00    +0.000 Br
ATOM      7  C   UNL     1     -52.746 -41.498 -79.502  0.00  0.00    +0.000 A 
ATOM      8  C   UNL     1     -52.027 -41.748 -78.338  0.00  0.00    +0.000 A 
ATOM      9  C   UNL     1     -52.692 -41.951 -77.120  0.00  0.00    +0.000 A 
ATOM     10 CL   UNL     1     -51.656 -42.253 -75.768  0.00  0.00    +0.000 Cl
ATOM     11  C   UNL     1     -54.098 -41.907 -77.072  0.00  0.00    +0.000 A 
ATOM     12  C   UNL     1     -54.877 -42.108 -75.820  0.00  0.00    +0.000 A 
ATOM     13  O   UNL     1     -54.290 -42.268 -74.758  0.00  0.00    +0.000 OA
ATOM     14  H   UNL     1     -56.697 -41.096 -78.946  0.00  0.00    +0.000 HD
ENDROOT
BRANCH   1  16
ATOM     15  C   UNL     1     -57.510 -41.074 -73.707  0.00  0.00    +0.000 C 
ATOM     16  C   UNL     1     -57.135 -42.272 -74.552  0.00  0.00    +0.000 C 
ATOM     17  O   UNL     1     -57.435 -43.399 -74.157  0.00  0.00    +0.000 OA
ENDBRANCH   1  16
BRANCH   2  18
ATOM     18  S   UNL     1     -58.736 -41.379 -77.153  0.00  0.00    +0.000 S 
ATOM     19  O   UNL     1     -58.749 -39.938 -77.591  0.00  0.00    +0.000 OA
BRANCH  18  20
ATOM     20  C   UNL     1     -59.172 -42.362 -78.630  0.00  0.00    +0.000 C 
BRANCH  20  21
ATOM     21  C   UNL     1     -60.369 -43.235 -78.422  0.00  0.00    +0.000 A 
ATOM     22  C   UNL     1     -61.519 -43.435 -79.233  0.00  0.00    +0.000 A 
ATOM     23  C   UNL     1     -62.248 -44.395 -78.577  0.00  0.00    +0.000 A 
ATOM     24  C   UNL     1     -63.533 -45.076 -78.835  0.00  0.00    +0.000 C 
ATOM     25  O   UNL     1     -61.582 -44.767 -77.455  0.00  0.00    +0.000 OA
ATOM     26  N   UNL     1     -60.404 -44.049 -77.355  0.00  0.00    +0.000 NA
ENDBRANCH  20  21
ENDBRANCH  18  20
ENDBRANCH   2  18
TORSDOF 4
