REMARK VINA RESULT:    -5.995     14.452     15.734
REMARK INTER + INTRA:          -8.238
REMARK INTER:                  -7.598
REMARK INTRA:                  -0.640
REMARK UNBOUND:                -0.841
REMARK  Name = 
REMARK  6 active torsions:
REMARK  status: ('A' for Active; 'I' for Inactive)
REMARK    1  A    between atoms: C_1  and  C_2
REMARK    2  A    between atoms: C_2  and  C_4
REMARK    3  A    between atoms: C_5  and  S_6
REMARK    4  A    between atoms: S_6  and  C_8
REMARK    5  A    between atoms: C_8  and  C_9
REMARK    6  A    between atoms: C_11  and  C_12
REMARK                            x       y       z     vdW  Elec       q    Type
REMARK                         _______ _______ _______ _____ _____    ______ ____
ROOT
ATOM      1  C   UNL     1     -55.296 -42.853 -77.045  0.00  0.00    +0.000 A 
ATOM      2  C   UNL     1     -54.657 -42.245 -78.069  0.00  0.00    +0.000 A 
ATOM      3  N   UNL     1     -55.268 -41.913 -79.262  0.00  0.00    +0.000 N 
ATOM      4  C   UNL     1     -56.577 -42.308 -79.581  0.00  0.00    +0.000 A 
ATOM      5  C   UNL     1     -57.142 -41.981 -80.829  0.00  0.00    +0.000 A 
ATOM      6 BR   UNL     1     -56.132 -41.060 -82.148  0.00  0.00    +0.000 Br
ATOM      7  C   UNL     1     -58.455 -42.325 -81.134  0.00  0.00    +0.000 A 
ATOM      8  C   UNL     1     -59.228 -42.994 -80.186  0.00  0.00    +0.000 A 
ATOM      9  C   UNL     1     -58.696 -43.307 -78.929  0.00  0.00    +0.000 A 
ATOM     10 CL   UNL     1     -59.773 -44.146 -77.868  0.00  0.00    +0.000 Cl
ATOM     11  C   UNL     1     -57.371 -42.946 -78.614  0.00  0.00    +0.000 A 
ATOM     12  C   UNL     1     -56.733 -43.235 -77.295  0.00  0.00    +0.000 A 
ATOM     13  O   UNL     1     -57.366 -43.821 -76.424  0.00  0.00    +0.000 OA
ATOM     14  H   UNL     1     -54.639 -41.804 -80.060  0.00  0.00    +0.000 HD
ENDROOT
BRANCH   1  16
ATOM     15  C   UNL     1     -53.963 -44.530 -75.562  0.00  0.00    +0.000 C 
ATOM     16  C   UNL     1     -54.657 -43.195 -75.724  0.00  0.00    +0.000 C 
ATOM     17  O   UNL     1     -54.683 -42.418 -74.773  0.00  0.00    +0.000 OA
ENDBRANCH   1  16
BRANCH   2  18
ATOM     18  S   UNL     1     -52.858 -41.949 -78.023  0.00  0.00    +0.000 S 
ATOM     19  O   UNL     1     -52.512 -41.690 -79.466  0.00  0.00    +0.000 OA
BRANCH  18  20
ATOM     20  C   UNL     1     -52.850 -40.315 -77.201  0.00  0.00    +0.000 C 
BRANCH  20  21
ATOM     21  C   UNL     1     -51.599 -40.078 -76.421  0.00  0.00    +0.000 A 
ATOM     22  C   UNL     1     -50.990 -38.862 -76.015  0.00  0.00    +0.000 A 
ATOM     23  C   UNL     1     -49.866 -39.249 -75.327  0.00  0.00    +0.000 A 
ATOM     24  C   UNL     1     -48.751 -38.533 -74.681  0.00  0.00    +0.000 C 
ATOM     25  O   UNL     1     -49.823 -40.606 -75.275  0.00  0.00    +0.000 OA
ATOM     26  N   UNL     1     -50.909 -41.130 -75.952  0.00  0.00    +0.000 NA
ENDBRANCH  20  21
ENDBRANCH  18  20
ENDBRANCH   2  18
TORSDOF 4
