REMARK VINA RESULT:    -6.726     12.692     14.214
REMARK INTER + INTRA:          -8.966
REMARK INTER:                  -8.382
REMARK INTRA:                  -0.584
REMARK UNBOUND:                -0.667
REMARK  Name = 
REMARK  6 active torsions:
REMARK  status: ('A' for Active; 'I' for Inactive)
REMARK    1  A    between atoms: C_1  and  C_2
REMARK    2  A    between atoms: C_2  and  C_4
REMARK    3  A    between atoms: C_5  and  S_6
REMARK    4  A    between atoms: S_6  and  C_8
REMARK    5  A    between atoms: C_8  and  C_9
REMARK    6  A    between atoms: C_11  and  C_12
REMARK                            x       y       z     vdW  Elec       q    Type
REMARK                         _______ _______ _______ _____ _____    ______ ____
ROOT
ATOM      1  C   UNL     1     -56.396 -42.498 -77.203  0.00  0.00    +0.000 A 
ATOM      2  C   UNL     1     -55.427 -43.161 -76.533  0.00  0.00    +0.000 A 
ATOM      3  N   UNL     1     -55.373 -44.538 -76.444  0.00  0.00    +0.000 N 
ATOM      4  C   UNL     1     -56.375 -45.378 -76.959  0.00  0.00    +0.000 A 
ATOM      5  C   UNL     1     -56.255 -46.778 -76.880  0.00  0.00    +0.000 A 
ATOM      6 BR   UNL     1     -54.767 -47.585 -76.016  0.00  0.00    +0.000 Br
ATOM      7  C   UNL     1     -57.220 -47.615 -77.439  0.00  0.00    +0.000 A 
ATOM      8  C   UNL     1     -58.316 -47.060 -78.090  0.00  0.00    +0.000 A 
ATOM      9  C   UNL     1     -58.446 -45.671 -78.206  0.00  0.00    +0.000 A 
ATOM     10 CL   UNL     1     -59.857 -45.133 -79.049  0.00  0.00    +0.000 Cl
ATOM     11  C   UNL     1     -57.461 -44.823 -77.659  0.00  0.00    +0.000 A 
ATOM     12  C   UNL     1     -57.518 -43.338 -77.751  0.00  0.00    +0.000 A 
ATOM     13  O   UNL     1     -58.503 -42.790 -78.230  0.00  0.00    +0.000 OA
ATOM     14  H   UNL     1     -54.835 -44.913 -75.661  0.00  0.00    +0.000 HD
ENDROOT
BRANCH   1  16
ATOM     15  C   UNL     1     -57.335 -40.184 -76.489  0.00  0.00    +0.000 C 
ATOM     16  C   UNL     1     -56.443 -41.006 -77.391  0.00  0.00    +0.000 C 
ATOM     17  O   UNL     1     -55.801 -40.443 -78.277  0.00  0.00    +0.000 OA
ENDBRANCH   1  16
BRANCH   2  18
ATOM     18  S   UNL     1     -54.192 -42.267 -75.531  0.00  0.00    +0.000 S 
ATOM     19  O   UNL     1     -53.679 -43.323 -74.586  0.00  0.00    +0.000 OA
BRANCH  18  20
ATOM     20  C   UNL     1     -52.886 -42.039 -76.790  0.00  0.00    +0.000 C 
BRANCH  20  21
ATOM     21  C   UNL     1     -51.730 -41.261 -76.250  0.00  0.00    +0.000 A 
ATOM     22  C   UNL     1     -51.484 -39.863 -76.312  0.00  0.00    +0.000 A 
ATOM     23  C   UNL     1     -50.327 -39.684 -75.597  0.00  0.00    +0.000 A 
ATOM     24  C   UNL     1     -49.507 -38.511 -75.237  0.00  0.00    +0.000 C 
ATOM     25  O   UNL     1     -49.903 -40.887 -75.133  0.00  0.00    +0.000 OA
ATOM     26  N   UNL     1     -50.780 -41.878 -75.536  0.00  0.00    +0.000 NA
ENDBRANCH  20  21
ENDBRANCH  18  20
ENDBRANCH   2  18
TORSDOF 4
