REMARK VINA RESULT:    -7.836      0.000      0.000
REMARK INTER + INTRA:         -10.826
REMARK INTER:                 -10.126
REMARK INTRA:                  -0.699
REMARK UNBOUND:                -0.699
REMARK  Name = 
REMARK  8 active torsions:
REMARK  status: ('A' for Active; 'I' for Inactive)
REMARK    1  A    between atoms: C_1  and  C_2
REMARK    2  A    between atoms: C_4  and  C_5
REMARK    3  A    between atoms: C_5  and  S_6
REMARK    4  A    between atoms: S_6  and  C_8
REMARK    5  A    between atoms: C_20  and  C_21
REMARK    6  A    between atoms: C_21  and  C_23
REMARK    7  A    between atoms: C_23  and  C_24
REMARK    8  A    between atoms: C_23  and  C_25
REMARK                            x       y       z     vdW  Elec       q    Type
REMARK                         _______ _______ _______ _____ _____    ______ ____
ROOT
ATOM      1  C   UNL     1     -55.619 -41.393 -63.502  0.00  0.00    +0.000 A 
ATOM      2  N   UNL     1     -54.299 -41.039 -63.762  0.00  0.00    +0.000 N 
ATOM      3  C   UNL     1     -53.278 -42.005 -63.853  0.00  0.00    +0.000 A 
ATOM      4  C   UNL     1     -52.059 -41.748 -64.508  0.00  0.00    +0.000 A 
ATOM      5 BR   UNL     1     -51.783 -40.127 -65.454  0.00  0.00    +0.000 Br
ATOM      6  C   UNL     1     -51.033 -42.697 -64.516  0.00  0.00    +0.000 A 
ATOM      7  C   UNL     1     -51.213 -43.919 -63.874  0.00  0.00    +0.000 A 
ATOM      8  C   UNL     1     -52.426 -44.199 -63.220  0.00  0.00    +0.000 A 
ATOM      9 CL   UNL     1     -52.558 -45.773 -62.522  0.00  0.00    +0.000 Cl
ATOM     10  C   UNL     1     -53.459 -43.238 -63.206  0.00  0.00    +0.000 A 
ATOM     11  C   UNL     1     -54.762 -43.424 -62.517  0.00  0.00    +0.000 A 
ATOM     12  O   UNL     1     -54.856 -44.214 -61.583  0.00  0.00    +0.000 OA
ATOM     13  C   UNL     1     -55.957 -42.598 -62.983  0.00  0.00    +0.000 A 
ATOM     14  H   UNL     1     -54.200 -40.219 -64.377  0.00  0.00    +0.000 HD
ENDROOT
BRANCH   1  15
ATOM     15  S   UNL     1     -56.791 -40.139 -64.143  0.00  0.00    +0.000 S 
ATOM     16  O   UNL     1     -57.391 -39.540 -62.900  0.00  0.00    +0.000 OA
BRANCH  15  17
ATOM     17  C   UNL     1     -58.067 -41.143 -64.975  0.00  0.00    +0.000 C 
BRANCH  17  21
ATOM     18  C   UNL     1     -55.805 -42.845 -69.310  0.00  0.00    +0.000 C 
ATOM     19  C   UNL     1     -56.625 -42.442 -68.147  0.00  0.00    +0.000 A 
ATOM     20  C   UNL     1     -56.365 -41.871 -66.922  0.00  0.00    +0.000 A 
ATOM     21  C   UNL     1     -57.639 -41.729 -66.301  0.00  0.00    +0.000 A 
ATOM     22  N   UNL     1     -58.597 -42.211 -67.111  0.00  0.00    +0.000 NA
ATOM     23  O   UNL     1     -57.962 -42.649 -68.258  0.00  0.00    +0.000 OA
ENDBRANCH  17  21
ENDBRANCH  15  17
ENDBRANCH   1  15
BRANCH  13  24
ATOM     24  C   UNL     1     -57.321 -43.238 -62.844  0.00  0.00    +0.000 C 
ATOM     25  O   UNL     1     -57.644 -44.172 -63.577  0.00  0.00    +0.000 OA
BRANCH  24  26
ATOM     26  C   UNL     1     -58.333 -42.688 -61.839  0.00  0.00    +0.000 C 
ATOM     27  C   UNL     1     -59.489 -43.658 -61.611  0.00  0.00    +0.000 C 
ATOM     28  C   UNL     1     -57.675 -42.323 -60.506  0.00  0.00    +0.000 C 
ENDBRANCH  24  26
ENDBRANCH  13  24
TORSDOF 5
