REMARK VINA RESULT:    -5.520      3.232      5.102
REMARK INTER + INTRA:          -7.852
REMARK INTER:                  -6.983
REMARK INTRA:                  -0.870
REMARK UNBOUND:                -1.042
REMARK  Name = 
REMARK  6 active torsions:
REMARK  status: ('A' for Active; 'I' for Inactive)
REMARK    1  A    between atoms: C_1  and  C_2
REMARK    2  A    between atoms: C_2  and  C_4
REMARK    3  A    between atoms: C_5  and  S_6
REMARK    4  A    between atoms: S_6  and  C_8
REMARK    5  A    between atoms: C_8  and  C_9
REMARK    6  A    between atoms: C_11  and  C_12
REMARK                            x       y       z     vdW  Elec       q    Type
REMARK                         _______ _______ _______ _____ _____    ______ ____
ROOT
ATOM      1  C   UNL     1     -57.093 -42.412 -79.027  0.00  0.00    +0.000 A 
ATOM      2  C   UNL     1     -55.880 -42.788 -78.564  0.00  0.00    +0.000 A 
ATOM      3  N   UNL     1     -54.701 -42.548 -79.241  0.00  0.00    +0.000 N 
ATOM      4  C   UNL     1     -54.660 -41.982 -80.524  0.00  0.00    +0.000 A 
ATOM      5  C   UNL     1     -53.429 -41.747 -81.169  0.00  0.00    +0.000 A 
ATOM      6 BR   UNL     1     -51.790 -42.260 -80.354  0.00  0.00    +0.000 Br
ATOM      7  C   UNL     1     -53.376 -41.132 -82.414  0.00  0.00    +0.000 A 
ATOM      8  C   UNL     1     -54.557 -40.733 -83.036  0.00  0.00    +0.000 A 
ATOM      9  C   UNL     1     -55.792 -40.937 -82.408  0.00  0.00    +0.000 A 
ATOM     10 CL   UNL     1     -57.168 -40.401 -83.307  0.00  0.00    +0.000 Cl
ATOM     11  C   UNL     1     -55.845 -41.545 -81.137  0.00  0.00    +0.000 A 
ATOM     12  C   UNL     1     -57.116 -41.786 -80.397  0.00  0.00    +0.000 A 
ATOM     13  O   UNL     1     -58.189 -41.510 -80.919  0.00  0.00    +0.000 OA
ATOM     14  H   UNL     1     -53.911 -43.142 -78.989  0.00  0.00    +0.000 HD
ENDROOT
BRANCH   1  16
ATOM     15  C   UNL     1     -59.193 -43.868 -78.537  0.00  0.00    +0.000 C 
ATOM     16  C   UNL     1     -58.391 -42.610 -78.286  0.00  0.00    +0.000 C 
ATOM     17  O   UNL     1     -58.826 -41.768 -77.504  0.00  0.00    +0.000 OA
ENDBRANCH   1  16
BRANCH   2  18
ATOM     18  S   UNL     1     -55.712 -43.787 -77.048  0.00  0.00    +0.000 S 
ATOM     19  O   UNL     1     -54.406 -44.513 -77.248  0.00  0.00    +0.000 OA
BRANCH  18  20
ATOM     20  C   UNL     1     -55.365 -42.449 -75.852  0.00  0.00    +0.000 C 
BRANCH  20  21
ATOM     21  C   UNL     1     -54.054 -41.779 -76.099  0.00  0.00    +0.000 A 
ATOM     22  C   UNL     1     -52.734 -42.221 -75.823  0.00  0.00    +0.000 A 
ATOM     23  C   UNL     1     -51.925 -41.219 -76.295  0.00  0.00    +0.000 A 
ATOM     24  C   UNL     1     -50.468 -40.988 -76.315  0.00  0.00    +0.000 C 
ATOM     25  O   UNL     1     -52.698 -40.250 -76.852  0.00  0.00    +0.000 OA
ATOM     26  N   UNL     1     -54.031 -40.601 -76.740  0.00  0.00    +0.000 NA
ENDBRANCH  20  21
ENDBRANCH  18  20
ENDBRANCH   2  18
TORSDOF 4
