REMARK VINA RESULT:    -6.728      3.880      6.593
REMARK INTER + INTRA:          -9.588
REMARK INTER:                  -8.362
REMARK INTRA:                  -1.226
REMARK UNBOUND:                -0.894
REMARK  Name = 
REMARK  8 active torsions:
REMARK  status: ('A' for Active; 'I' for Inactive)
REMARK    1  A    between atoms: C_1  and  C_2
REMARK    2  A    between atoms: C_4  and  C_5
REMARK    3  A    between atoms: C_5  and  S_6
REMARK    4  A    between atoms: S_6  and  C_8
REMARK    5  A    between atoms: C_20  and  C_21
REMARK    6  A    between atoms: C_21  and  C_23
REMARK    7  A    between atoms: C_23  and  C_24
REMARK    8  A    between atoms: C_23  and  C_25
REMARK                            x       y       z     vdW  Elec       q    Type
REMARK                         _______ _______ _______ _____ _____    ______ ____
ROOT
ATOM      1  C   UNL     1     -55.383 -42.790 -78.751  0.00  0.00    +0.000 A 
ATOM      2  N   UNL     1     -55.449 -44.178 -78.661  0.00  0.00    +0.000 N 
ATOM      3  C   UNL     1     -54.995 -44.870 -77.518  0.00  0.00    +0.000 A 
ATOM      4  C   UNL     1     -55.393 -46.192 -77.236  0.00  0.00    +0.000 A 
ATOM      5 CL   UNL     1     -56.593 -46.977 -78.201  0.00  0.00    +0.000 Cl
ATOM      6  C   UNL     1     -54.851 -46.891 -76.158  0.00  0.00    +0.000 A 
ATOM      7  C   UNL     1     -53.902 -46.273 -75.341  0.00  0.00    +0.000 A 
ATOM      8  C   UNL     1     -53.504 -44.954 -75.596  0.00  0.00    +0.000 A 
ATOM      9 CL   UNL     1     -52.377 -44.276 -74.480  0.00  0.00    +0.000 Cl
ATOM     10  C   UNL     1     -54.042 -44.260 -76.691  0.00  0.00    +0.000 A 
ATOM     11  C   UNL     1     -53.637 -42.892 -77.103  0.00  0.00    +0.000 A 
ATOM     12  O   UNL     1     -52.508 -42.497 -76.839  0.00  0.00    +0.000 OA
ATOM     13  C   UNL     1     -54.602 -42.042 -77.920  0.00  0.00    +0.000 A 
ATOM     14  H   UNL     1     -56.277 -44.581 -79.120  0.00  0.00    +0.000 HD
ENDROOT
BRANCH   1  15
ATOM     15  S   UNL     1     -56.640 -42.140 -79.924  0.00  0.00    +0.000 S 
ATOM     16  O   UNL     1     -57.221 -43.381 -80.546  0.00  0.00    +0.000 OA
BRANCH  15  17
ATOM     17  C   UNL     1     -55.612 -41.311 -81.204  0.00  0.00    +0.000 C 
BRANCH  17  21
ATOM     18  C   UNL     1     -50.794 -43.019 -81.978  0.00  0.00    +0.000 C 
ATOM     19  C   UNL     1     -52.233 -42.716 -81.829  0.00  0.00    +0.000 A 
ATOM     20  C   UNL     1     -52.962 -41.711 -81.236  0.00  0.00    +0.000 A 
ATOM     21  C   UNL     1     -54.321 -42.024 -81.519  0.00  0.00    +0.000 A 
ATOM     22  N   UNL     1     -54.391 -43.172 -82.214  0.00  0.00    +0.000 NA
ATOM     23  O   UNL     1     -53.091 -43.594 -82.410  0.00  0.00    +0.000 OA
ENDBRANCH  17  21
ENDBRANCH  15  17
ENDBRANCH   1  15
BRANCH  13  24
ATOM     24  C   UNL     1     -54.527 -40.554 -77.646  0.00  0.00    +0.000 C 
ATOM     25  O   UNL     1     -55.462 -39.987 -77.067  0.00  0.00    +0.000 OA
BRANCH  24  26
ATOM     26  C   UNL     1     -53.406 -39.687 -78.188  0.00  0.00    +0.000 C 
ATOM     27  C   UNL     1     -53.956 -38.732 -79.231  0.00  0.00    +0.000 C 
ATOM     28  C   UNL     1     -52.639 -38.993 -77.069  0.00  0.00    +0.000 C 
ENDBRANCH  24  26
ENDBRANCH  13  24
TORSDOF 5
