REMARK VINA RESULT:    -6.108     14.355     16.988
REMARK INTER + INTRA:          -8.578
REMARK INTER:                  -7.626
REMARK INTRA:                  -0.952
REMARK UNBOUND:                -0.684
REMARK  Name = 
REMARK  8 active torsions:
REMARK  status: ('A' for Active; 'I' for Inactive)
REMARK    1  A    between atoms: C_1  and  C_2
REMARK    2  A    between atoms: C_4  and  C_5
REMARK    3  A    between atoms: C_5  and  S_6
REMARK    4  A    between atoms: S_6  and  C_8
REMARK    5  A    between atoms: C_20  and  C_21
REMARK    6  A    between atoms: C_21  and  C_23
REMARK    7  A    between atoms: C_23  and  C_24
REMARK    8  A    between atoms: C_23  and  C_25
REMARK                            x       y       z     vdW  Elec       q    Type
REMARK                         _______ _______ _______ _____ _____    ______ ____
ROOT
ATOM      1  C   UNL     1     -67.175 -49.624 -54.473  0.00  0.00    +0.000 A 
ATOM      2  N   UNL     1     -67.779 -50.638 -55.210  0.00  0.00    +0.000 N 
ATOM      3  C   UNL     1     -67.904 -51.946 -54.703  0.00  0.00    +0.000 A 
ATOM      4  C   UNL     1     -68.846 -52.860 -55.212  0.00  0.00    +0.000 A 
ATOM      5 BR   UNL     1     -70.120 -52.326 -56.512  0.00  0.00    +0.000 Br
ATOM      6  C   UNL     1     -68.896 -54.177 -54.744  0.00  0.00    +0.000 A 
ATOM      7  C   UNL     1     -68.010 -54.597 -53.757  0.00  0.00    +0.000 A 
ATOM      8  C   UNL     1     -67.066 -53.697 -53.229  0.00  0.00    +0.000 A 
ATOM      9 CL   UNL     1     -66.070 -54.311 -51.960  0.00  0.00    +0.000 Cl
ATOM     10  C   UNL     1     -67.011 -52.371 -53.706  0.00  0.00    +0.000 A 
ATOM     11  C   UNL     1     -66.032 -51.355 -53.238  0.00  0.00    +0.000 A 
ATOM     12  O   UNL     1     -64.967 -51.710 -52.743  0.00  0.00    +0.000 OA
ATOM     13  C   UNL     1     -66.376 -49.878 -53.409  0.00  0.00    +0.000 A 
ATOM     14  H   UNL     1     -68.545 -50.314 -55.817  0.00  0.00    +0.000 HD
ENDROOT
BRANCH   1  15
ATOM     15  S   UNL     1     -67.773 -47.971 -54.989  0.00  0.00    +0.000 S 
ATOM     16  O   UNL     1     -69.124 -47.857 -54.337  0.00  0.00    +0.000 OA
BRANCH  15  17
ATOM     17  C   UNL     1     -68.014 -48.155 -56.789  0.00  0.00    +0.000 C 
BRANCH  17  21
ATOM     18  C   UNL     1     -64.335 -47.224 -60.310  0.00  0.00    +0.000 C 
ATOM     19  C   UNL     1     -65.267 -47.383 -59.172  0.00  0.00    +0.000 A 
ATOM     20  C   UNL     1     -66.534 -47.897 -59.015  0.00  0.00    +0.000 A 
ATOM     21  C   UNL     1     -66.821 -47.759 -57.626  0.00  0.00    +0.000 A 
ATOM     22  N   UNL     1     -65.784 -47.173 -57.004  0.00  0.00    +0.000 NA
ATOM     23  O   UNL     1     -64.820 -46.946 -57.967  0.00  0.00    +0.000 OA
ENDBRANCH  17  21
ENDBRANCH  15  17
ENDBRANCH   1  15
BRANCH  13  24
ATOM     24  C   UNL     1     -65.825 -48.928 -52.370  0.00  0.00    +0.000 C 
ATOM     25  O   UNL     1     -66.333 -48.871 -51.251  0.00  0.00    +0.000 OA
BRANCH  24  26
ATOM     26  C   UNL     1     -64.676 -47.982 -52.721  0.00  0.00    +0.000 C 
ATOM     27  C   UNL     1     -63.837 -47.630 -51.495  0.00  0.00    +0.000 C 
ATOM     28  C   UNL     1     -63.784 -48.551 -53.829  0.00  0.00    +0.000 C 
ENDBRANCH  24  26
ENDBRANCH  13  24
TORSDOF 5
