REMARK VINA RESULT:    -6.753      2.149      3.861
REMARK INTER + INTRA:          -9.297
REMARK INTER:                  -8.309
REMARK INTRA:                  -0.987
REMARK UNBOUND:                -0.965
REMARK  Name = 
REMARK  6 active torsions:
REMARK  status: ('A' for Active; 'I' for Inactive)
REMARK    1  A    between atoms: C_1  and  C_2
REMARK    2  A    between atoms: C_2  and  C_4
REMARK    3  A    between atoms: C_5  and  S_6
REMARK    4  A    between atoms: S_6  and  C_8
REMARK    5  A    between atoms: C_8  and  C_9
REMARK    6  A    between atoms: C_11  and  C_12
REMARK                            x       y       z     vdW  Elec       q    Type
REMARK                         _______ _______ _______ _____ _____    ______ ____
ROOT
ATOM      1  C   UNL     1     -55.511 -42.632 -62.483  0.00  0.00    +0.000 A 
ATOM      2  C   UNL     1     -55.156 -41.476 -63.092  0.00  0.00    +0.000 A 
ATOM      3  N   UNL     1     -53.968 -41.311 -63.772  0.00  0.00    +0.000 N 
ATOM      4  C   UNL     1     -52.955 -42.285 -63.784  0.00  0.00    +0.000 A 
ATOM      5  C   UNL     1     -51.756 -42.064 -64.490  0.00  0.00    +0.000 A 
ATOM      6 BR   UNL     1     -51.440 -40.421 -65.392  0.00  0.00    +0.000 Br
ATOM      7  C   UNL     1     -50.767 -43.045 -64.551  0.00  0.00    +0.000 A 
ATOM      8  C   UNL     1     -50.968 -44.261 -63.908  0.00  0.00    +0.000 A 
ATOM      9  C   UNL     1     -52.161 -44.513 -63.220  0.00  0.00    +0.000 A 
ATOM     10 CL   UNL     1     -52.256 -46.066 -62.464  0.00  0.00    +0.000 Cl
ATOM     11  C   UNL     1     -53.172 -43.532 -63.176  0.00  0.00    +0.000 A 
ATOM     12  C   UNL     1     -54.479 -43.731 -62.493  0.00  0.00    +0.000 A 
ATOM     13  O   UNL     1     -54.701 -44.780 -61.900  0.00  0.00    +0.000 OA
ATOM     14  H   UNL     1     -53.653 -40.347 -63.885  0.00  0.00    +0.000 HD
ENDROOT
BRANCH   1  16
ATOM     15  C   UNL     1     -56.976 -42.423 -60.343  0.00  0.00    +0.000 C 
ATOM     16  C   UNL     1     -56.822 -42.867 -61.782  0.00  0.00    +0.000 C 
ATOM     17  O   UNL     1     -57.762 -43.431 -62.336  0.00  0.00    +0.000 OA
ENDBRANCH   1  16
BRANCH   2  18
ATOM     18  S   UNL     1     -56.171 -39.964 -62.922  0.00  0.00    +0.000 S 
ATOM     19  O   UNL     1     -55.164 -38.910 -62.549  0.00  0.00    +0.000 OA
BRANCH  18  20
ATOM     20  C   UNL     1     -56.573 -39.677 -64.683  0.00  0.00    +0.000 C 
BRANCH  20  21
ATOM     21  C   UNL     1     -57.139 -40.894 -65.337  0.00  0.00    +0.000 A 
ATOM     22  C   UNL     1     -56.576 -41.719 -66.346  0.00  0.00    +0.000 A 
ATOM     23  C   UNL     1     -57.483 -42.737 -66.509  0.00  0.00    +0.000 A 
ATOM     24  C   UNL     1     -57.551 -43.937 -67.366  0.00  0.00    +0.000 C 
ATOM     25  O   UNL     1     -58.523 -42.545 -65.655  0.00  0.00    +0.000 OA
ATOM     26  N   UNL     1     -58.310 -41.395 -64.915  0.00  0.00    +0.000 NA
ENDBRANCH  20  21
ENDBRANCH  18  20
ENDBRANCH   2  18
TORSDOF 4
