REMARK VINA RESULT:    -7.329      3.537      6.273
REMARK INTER + INTRA:         -10.107
REMARK INTER:                  -9.361
REMARK INTRA:                  -0.746
REMARK UNBOUND:                -0.635
REMARK  Name = 
REMARK  6 active torsions:
REMARK  status: ('A' for Active; 'I' for Inactive)
REMARK    1  A    between atoms: C_1  and  C_2
REMARK    2  A    between atoms: C_4  and  C_5
REMARK    3  A    between atoms: C_5  and  S_6
REMARK    4  A    between atoms: S_6  and  C_8
REMARK    5  A    between atoms: C_20  and  C_21
REMARK    6  A    between atoms: C_21  and  C_23
REMARK                            x       y       z     vdW  Elec       q    Type
REMARK                         _______ _______ _______ _____ _____    ______ ____
ROOT
ATOM      1  C   UNL     1     -55.226 -43.022 -61.838  0.00  0.00    +0.000 A 
ATOM      2  N   UNL     1     -55.039 -42.795 -60.461  0.00  0.00    +0.000 N 
ATOM      3  C   UNL     1     -56.155 -42.646 -59.593  0.00  0.00    +0.000 A 
ATOM      4  C   UNL     1     -56.070 -42.808 -58.197  0.00  0.00    +0.000 A 
ATOM      5 BR   UNL     1     -54.473 -43.420 -57.378  0.00  0.00    +0.000 Br
ATOM      6  C   UNL     1     -57.170 -42.545 -57.369  0.00  0.00    +0.000 A 
ATOM      7  C   UNL     1     -58.384 -42.140 -57.936  0.00  0.00    +0.000 A 
ATOM      8  C   UNL     1     -58.493 -41.975 -59.317  0.00  0.00    +0.000 A 
ATOM      9 CL   UNL     1     -60.051 -41.544 -59.924  0.00  0.00    +0.000 Cl
ATOM     10  C   UNL     1     -57.375 -42.207 -60.133  0.00  0.00    +0.000 A 
ATOM     11  C   UNL     1     -57.370 -41.977 -61.590  0.00  0.00    +0.000 A 
ATOM     12  O   UNL     1     -58.068 -41.115 -62.109  0.00  0.00    +0.000 OA
ATOM     13  C   UNL     1     -56.419 -42.780 -62.426  0.00  0.00    +0.000 A 
ATOM     14  H   UNL     1     -54.284 -43.376 -60.069  0.00  0.00    +0.000 HD
ENDROOT
BRANCH   1  15
ATOM     15  S   UNL     1     -53.915 -44.043 -62.560  0.00  0.00    +0.000 S 
ATOM     16  O   UNL     1     -53.327 -44.775 -61.385  0.00  0.00    +0.000 OA
BRANCH  15  17
ATOM     17  C   UNL     1     -52.615 -42.971 -63.240  0.00  0.00    +0.000 C 
BRANCH  17  21
ATOM     18  C   UNL     1     -48.745 -45.691 -65.199  0.00  0.00    +0.000 C 
ATOM     19  C   UNL     1     -49.770 -44.740 -64.730  0.00  0.00    +0.000 A 
ATOM     20  C   UNL     1     -50.951 -44.855 -64.037  0.00  0.00    +0.000 A 
ATOM     21  C   UNL     1     -51.381 -43.524 -63.844  0.00  0.00    +0.000 A 
ATOM     22  N   UNL     1     -50.542 -42.665 -64.449  0.00  0.00    +0.000 NA
ATOM     23  O   UNL     1     -49.536 -43.431 -65.000  0.00  0.00    +0.000 OA
ENDBRANCH  17  21
ENDBRANCH  15  17
ENDBRANCH   1  15
BRANCH  13  24
ATOM     24  C   UNL     1     -57.024 -43.311 -63.681  0.00  0.00    +0.000 C 
ATOM     25  O   UNL     1     -57.856 -44.201 -63.639  0.00  0.00    +0.000 OA
BRANCH  24  26
ATOM     26  C   UNL     1     -56.635 -42.708 -64.969  0.00  0.00    +0.000 C 
ATOM     27  C   UNL     1     -55.697 -41.529 -64.982  0.00  0.00    +0.000 C 
ATOM     28  C   UNL     1     -57.131 -41.341 -65.375  0.00  0.00    +0.000 C 
ENDBRANCH  24  26
ENDBRANCH  13  24
TORSDOF 5
