REMARK VINA RESULT:    -6.443     11.129     14.616
REMARK INTER + INTRA:          -8.474
REMARK INTER:                  -7.730
REMARK INTRA:                  -0.743
REMARK UNBOUND:                -0.524
REMARK  Name = 
REMARK  6 active torsions:
REMARK  status: ('A' for Active; 'I' for Inactive)
REMARK    1  A    between atoms: C_1  and  C_2
REMARK    2  A    between atoms: C_2  and  C_4
REMARK    3  A    between atoms: C_5  and  S_6
REMARK    4  A    between atoms: S_6  and  C_8
REMARK    5  A    between atoms: C_8  and  C_9
REMARK    6  A    between atoms: C_11  and  C_12
REMARK                            x       y       z     vdW  Elec       q    Type
REMARK                         _______ _______ _______ _____ _____    ______ ____
ROOT
ATOM      1  C   UNL     1     -53.383 -41.485 -77.909  0.00  0.00    +0.000 A 
ATOM      2  C   UNL     1     -54.709 -41.300 -78.094  0.00  0.00    +0.000 A 
ATOM      3  N   UNL     1     -55.348 -41.498 -79.305  0.00  0.00    +0.000 N 
ATOM      4  C   UNL     1     -54.656 -41.786 -80.490  0.00  0.00    +0.000 A 
ATOM      5  C   UNL     1     -55.347 -41.942 -81.707  0.00  0.00    +0.000 A 
ATOM      6 BR   UNL     1     -57.227 -41.689 -81.803  0.00  0.00    +0.000 Br
ATOM      7  C   UNL     1     -54.675 -42.283 -82.876  0.00  0.00    +0.000 A 
ATOM      8  C   UNL     1     -53.295 -42.483 -82.842  0.00  0.00    +0.000 A 
ATOM      9  C   UNL     1     -52.589 -42.355 -81.641  0.00  0.00    +0.000 A 
ATOM     10 CL   UNL     1     -50.886 -42.634 -81.759  0.00  0.00    +0.000 Cl
ATOM     11  C   UNL     1     -53.269 -42.020 -80.453  0.00  0.00    +0.000 A 
ATOM     12  C   UNL     1     -52.591 -41.855 -79.136  0.00  0.00    +0.000 A 
ATOM     13  O   UNL     1     -51.375 -41.977 -79.058  0.00  0.00    +0.000 OA
ATOM     14  H   UNL     1     -56.230 -40.999 -79.420  0.00  0.00    +0.000 HD
ENDROOT
BRANCH   1  16
ATOM     15  C   UNL     1     -52.618 -42.457 -75.615  0.00  0.00    +0.000 C 
ATOM     16  C   UNL     1     -52.668 -41.302 -76.592  0.00  0.00    +0.000 C 
ATOM     17  O   UNL     1     -52.137 -40.235 -76.288  0.00  0.00    +0.000 OA
ENDBRANCH   1  16
BRANCH   2  18
ATOM     18  S   UNL     1     -55.759 -40.594 -76.781  0.00  0.00    +0.000 S 
ATOM     19  O   UNL     1     -56.948 -40.058 -77.532  0.00  0.00    +0.000 OA
BRANCH  18  20
ATOM     20  C   UNL     1     -56.324 -42.141 -75.984  0.00  0.00    +0.000 C 
BRANCH  20  21
ATOM     21  C   UNL     1     -56.664 -41.953 -74.541  0.00  0.00    +0.000 A 
ATOM     22  C   UNL     1     -55.906 -42.242 -73.377  0.00  0.00    +0.000 A 
ATOM     23  C   UNL     1     -56.705 -41.843 -72.333  0.00  0.00    +0.000 A 
ATOM     24  C   UNL     1     -56.585 -41.876 -70.865  0.00  0.00    +0.000 C 
ATOM     25  O   UNL     1     -57.852 -41.313 -72.832  0.00  0.00    +0.000 OA
ATOM     26  N   UNL     1     -57.829 -41.375 -74.213  0.00  0.00    +0.000 NA
ENDBRANCH  20  21
ENDBRANCH  18  20
ENDBRANCH   2  18
TORSDOF 4
