REMARK VINA RESULT:    -6.418      2.829      3.945
REMARK INTER + INTRA:          -9.205
REMARK INTER:                  -8.172
REMARK INTRA:                  -1.034
REMARK UNBOUND:                -0.911
REMARK  Name = 
REMARK  6 active torsions:
REMARK  status: ('A' for Active; 'I' for Inactive)
REMARK    1  A    between atoms: C_1  and  C_2
REMARK    2  A    between atoms: C_4  and  C_5
REMARK    3  A    between atoms: C_5  and  S_6
REMARK    4  A    between atoms: S_6  and  C_8
REMARK    5  A    between atoms: C_20  and  C_21
REMARK    6  A    between atoms: C_21  and  C_23
REMARK                            x       y       z     vdW  Elec       q    Type
REMARK                         _______ _______ _______ _____ _____    ______ ____
ROOT
ATOM      1  C   UNL     1     -55.456 -42.295 -77.348  0.00  0.00    +0.000 A 
ATOM      2  N   UNL     1     -54.751 -41.088 -77.174  0.00  0.00    +0.000 N 
ATOM      3  C   UNL     1     -53.403 -41.096 -76.723  0.00  0.00    +0.000 A 
ATOM      4  C   UNL     1     -52.529 -40.006 -76.894  0.00  0.00    +0.000 A 
ATOM      5 BR   UNL     1     -53.042 -38.491 -77.914  0.00  0.00    +0.000 Br
ATOM      6  C   UNL     1     -51.243 -40.013 -76.337  0.00  0.00    +0.000 A 
ATOM      7  C   UNL     1     -50.805 -41.132 -75.621  0.00  0.00    +0.000 A 
ATOM      8  C   UNL     1     -51.652 -42.226 -75.439  0.00  0.00    +0.000 A 
ATOM      9 CL   UNL     1     -50.992 -43.585 -74.603  0.00  0.00    +0.000 Cl
ATOM     10  C   UNL     1     -52.950 -42.191 -75.971  0.00  0.00    +0.000 A 
ATOM     11  C   UNL     1     -53.944 -43.261 -75.758  0.00  0.00    +0.000 A 
ATOM     12  O   UNL     1     -53.949 -43.944 -74.741  0.00  0.00    +0.000 OA
ATOM     13  C   UNL     1     -55.012 -43.445 -76.795  0.00  0.00    +0.000 A 
ATOM     14  H   UNL     1     -54.929 -40.420 -77.937  0.00  0.00    +0.000 HD
ENDROOT
BRANCH   1  15
ATOM     15  S   UNL     1     -56.668 -42.206 -78.692  0.00  0.00    +0.000 S 
ATOM     16  O   UNL     1     -56.182 -41.073 -79.554  0.00  0.00    +0.000 OA
BRANCH  15  17
ATOM     17  C   UNL     1     -58.285 -41.721 -78.019  0.00  0.00    +0.000 C 
BRANCH  17  21
ATOM     18  C   UNL     1     -58.889 -41.347 -72.948  0.00  0.00    +0.000 C 
ATOM     19  C   UNL     1     -58.876 -41.594 -74.402  0.00  0.00    +0.000 A 
ATOM     20  C   UNL     1     -58.187 -41.063 -75.467  0.00  0.00    +0.000 A 
ATOM     21  C   UNL     1     -58.598 -41.836 -76.576  0.00  0.00    +0.000 A 
ATOM     22  N   UNL     1     -59.532 -42.731 -76.208  0.00  0.00    +0.000 NA
ATOM     23  O   UNL     1     -59.700 -42.576 -74.848  0.00  0.00    +0.000 OA
ENDBRANCH  17  21
ENDBRANCH  15  17
ENDBRANCH   1  15
BRANCH  13  24
ATOM     24  C   UNL     1     -55.267 -44.871 -77.147  0.00  0.00    +0.000 C 
ATOM     25  O   UNL     1     -54.407 -45.535 -77.700  0.00  0.00    +0.000 OA
BRANCH  24  26
ATOM     26  C   UNL     1     -56.558 -45.477 -76.771  0.00  0.00    +0.000 C 
ATOM     27  C   UNL     1     -56.921 -46.838 -77.306  0.00  0.00    +0.000 C 
ATOM     28  C   UNL     1     -57.673 -45.631 -77.778  0.00  0.00    +0.000 C 
ENDBRANCH  24  26
ENDBRANCH  13  24
TORSDOF 5
