REMARK VINA RESULT:    -6.880     11.373     14.919
REMARK INTER + INTRA:          -9.590
REMARK INTER:                  -8.709
REMARK INTRA:                  -0.882
REMARK UNBOUND:                -0.699
REMARK  Name = 
REMARK  8 active torsions:
REMARK  status: ('A' for Active; 'I' for Inactive)
REMARK    1  A    between atoms: C_1  and  C_2
REMARK    2  A    between atoms: C_4  and  C_5
REMARK    3  A    between atoms: C_5  and  S_6
REMARK    4  A    between atoms: S_6  and  C_8
REMARK    5  A    between atoms: C_20  and  C_21
REMARK    6  A    between atoms: C_21  and  C_23
REMARK    7  A    between atoms: C_23  and  C_24
REMARK    8  A    between atoms: C_23  and  C_25
REMARK                            x       y       z     vdW  Elec       q    Type
REMARK                         _______ _______ _______ _____ _____    ______ ____
ROOT
ATOM      1  C   UNL     1     -54.872 -41.894 -78.013  0.00  0.00    +0.000 A 
ATOM      2  N   UNL     1     -56.209 -42.246 -77.850  0.00  0.00    +0.000 N 
ATOM      3  C   UNL     1     -56.846 -42.166 -76.597  0.00  0.00    +0.000 A 
ATOM      4  C   UNL     1     -58.247 -42.106 -76.471  0.00  0.00    +0.000 A 
ATOM      5 BR   UNL     1     -59.359 -41.963 -78.002  0.00  0.00    +0.000 Br
ATOM      6  C   UNL     1     -58.857 -42.106 -75.213  0.00  0.00    +0.000 A 
ATOM      7  C   UNL     1     -58.076 -42.162 -74.063  0.00  0.00    +0.000 A 
ATOM      8  C   UNL     1     -56.674 -42.216 -74.166  0.00  0.00    +0.000 A 
ATOM      9 CL   UNL     1     -55.809 -42.210 -72.671  0.00  0.00    +0.000 Cl
ATOM     10  C   UNL     1     -56.059 -42.222 -75.435  0.00  0.00    +0.000 A 
ATOM     11  C   UNL     1     -54.591 -42.309 -75.651  0.00  0.00    +0.000 A 
ATOM     12  O   UNL     1     -53.871 -42.804 -74.789  0.00  0.00    +0.000 OA
ATOM     13  C   UNL     1     -54.017 -41.794 -76.968  0.00  0.00    +0.000 A 
ATOM     14  H   UNL     1     -56.797 -42.041 -78.670  0.00  0.00    +0.000 HD
ENDROOT
BRANCH   1  15
ATOM     15  S   UNL     1     -54.516 -41.389 -79.738  0.00  0.00    +0.000 S 
ATOM     16  O   UNL     1     -55.838 -41.548 -80.439  0.00  0.00    +0.000 OA
BRANCH  15  17
ATOM     17  C   UNL     1     -53.387 -42.694 -80.331  0.00  0.00    +0.000 C 
BRANCH  17  21
ATOM     18  C   UNL     1     -50.034 -41.913 -84.198  0.00  0.00    +0.000 C 
ATOM     19  C   UNL     1     -51.124 -42.021 -83.204  0.00  0.00    +0.000 A 
ATOM     20  C   UNL     1     -51.316 -42.733 -82.042  0.00  0.00    +0.000 A 
ATOM     21  C   UNL     1     -52.597 -42.329 -81.566  0.00  0.00    +0.000 A 
ATOM     22  N   UNL     1     -53.139 -41.440 -82.417  0.00  0.00    +0.000 NA
ATOM     23  O   UNL     1     -52.219 -41.250 -83.430  0.00  0.00    +0.000 OA
ENDBRANCH  17  21
ENDBRANCH  15  17
ENDBRANCH   1  15
BRANCH  13  24
ATOM     24  C   UNL     1     -52.618 -41.220 -76.920  0.00  0.00    +0.000 C 
ATOM     25  O   UNL     1     -51.651 -41.921 -77.212  0.00  0.00    +0.000 OA
BRANCH  24  26
ATOM     26  C   UNL     1     -52.389 -39.784 -76.446  0.00  0.00    +0.000 C 
ATOM     27  C   UNL     1     -50.921 -39.526 -76.114  0.00  0.00    +0.000 C 
ATOM     28  C   UNL     1     -52.892 -38.758 -77.465  0.00  0.00    +0.000 C 
ENDBRANCH  24  26
ENDBRANCH  13  24
TORSDOF 5
