REMARK VINA RESULT:    -6.421      4.509      6.448
REMARK INTER + INTRA:          -8.642
REMARK INTER:                  -7.910
REMARK INTRA:                  -0.732
REMARK UNBOUND:                -0.720
REMARK  Name = 
REMARK  6 active torsions:
REMARK  status: ('A' for Active; 'I' for Inactive)
REMARK    1  A    between atoms: C_1  and  C_2
REMARK    2  A    between atoms: C_2  and  C_4
REMARK    3  A    between atoms: C_5  and  S_6
REMARK    4  A    between atoms: S_6  and  C_8
REMARK    5  A    between atoms: C_8  and  C_9
REMARK    6  A    between atoms: C_11  and  C_12
REMARK                            x       y       z     vdW  Elec       q    Type
REMARK                         _______ _______ _______ _____ _____    ______ ____
ROOT
ATOM      1  C   UNL     1     -53.417 -41.415 -77.989  0.00  0.00    +0.000 A 
ATOM      2  C   UNL     1     -54.744 -41.219 -78.189  0.00  0.00    +0.000 A 
ATOM      3  N   UNL     1     -55.364 -41.440 -79.406  0.00  0.00    +0.000 N 
ATOM      4  C   UNL     1     -54.652 -41.737 -80.584  0.00  0.00    +0.000 A 
ATOM      5  C   UNL     1     -55.313 -41.887 -81.813  0.00  0.00    +0.000 A 
ATOM      6 BR   UNL     1     -57.185 -41.589 -81.958  0.00  0.00    +0.000 Br
ATOM      7  C   UNL     1     -54.618 -42.247 -82.969  0.00  0.00    +0.000 A 
ATOM      8  C   UNL     1     -53.245 -42.470 -82.903  0.00  0.00    +0.000 A 
ATOM      9  C   UNL     1     -52.565 -42.336 -81.692  0.00  0.00    +0.000 A 
ATOM     10 CL   UNL     1     -50.862 -42.631 -81.777  0.00  0.00    +0.000 Cl
ATOM     11  C   UNL     1     -53.271 -41.981 -80.523  0.00  0.00    +0.000 A 
ATOM     12  C   UNL     1     -52.617 -41.821 -79.200  0.00  0.00    +0.000 A 
ATOM     13  O   UNL     1     -51.402 -41.982 -79.102  0.00  0.00    +0.000 OA
ATOM     14  H   UNL     1     -56.275 -41.001 -79.534  0.00  0.00    +0.000 HD
ENDROOT
BRANCH   1  16
ATOM     15  C   UNL     1     -52.603 -42.396 -75.718  0.00  0.00    +0.000 C 
ATOM     16  C   UNL     1     -52.700 -41.231 -76.677  0.00  0.00    +0.000 C 
ATOM     17  O   UNL     1     -52.201 -40.146 -76.357  0.00  0.00    +0.000 OA
ENDBRANCH   1  16
BRANCH   2  18
ATOM     18  S   UNL     1     -55.796 -40.489 -76.886  0.00  0.00    +0.000 S 
ATOM     19  O   UNL     1     -57.033 -40.054 -77.625  0.00  0.00    +0.000 OA
BRANCH  18  20
ATOM     20  C   UNL     1     -56.262 -41.999 -75.969  0.00  0.00    +0.000 C 
BRANCH  20  21
ATOM     21  C   UNL     1     -56.565 -41.734 -74.527  0.00  0.00    +0.000 A 
ATOM     22  C   UNL     1     -55.988 -42.281 -73.349  0.00  0.00    +0.000 A 
ATOM     23  C   UNL     1     -56.643 -41.661 -72.316  0.00  0.00    +0.000 A 
ATOM     24  C   UNL     1     -56.597 -41.766 -70.844  0.00  0.00    +0.000 C 
ATOM     25  O   UNL     1     -57.527 -40.763 -72.829  0.00  0.00    +0.000 OA
ATOM     26  N   UNL     1     -57.475 -40.800 -74.210  0.00  0.00    +0.000 NA
ENDBRANCH  20  21
ENDBRANCH  18  20
ENDBRANCH   2  18
TORSDOF 4
