REMARK VINA RESULT:    -5.466      3.809      5.469
REMARK INTER + INTRA:          -8.061
REMARK INTER:                  -7.037
REMARK INTRA:                  -1.024
REMARK UNBOUND:                -0.997
REMARK  Name = 
REMARK  8 active torsions:
REMARK  status: ('A' for Active; 'I' for Inactive)
REMARK    1  A    between atoms: C_1  and  C_2
REMARK    2  A    between atoms: C_4  and  C_5
REMARK    3  A    between atoms: C_5  and  S_6
REMARK    4  A    between atoms: S_6  and  C_8
REMARK    5  A    between atoms: C_20  and  C_21
REMARK    6  A    between atoms: C_21  and  C_23
REMARK    7  A    between atoms: C_23  and  C_24
REMARK    8  A    between atoms: C_23  and  C_25
REMARK                            x       y       z     vdW  Elec       q    Type
REMARK                         _______ _______ _______ _____ _____    ______ ____
ROOT
ATOM      1  C   UNL     1     -57.880 -44.300 -77.571  0.00  0.00    +0.000 A 
ATOM      2  N   UNL     1     -56.842 -44.634 -76.704  0.00  0.00    +0.000 N 
ATOM      3  C   UNL     1     -56.246 -45.913 -76.720  0.00  0.00    +0.000 A 
ATOM      4  C   UNL     1     -54.979 -46.154 -76.154  0.00  0.00    +0.000 A 
ATOM      5 CL   UNL     1     -54.017 -44.850 -75.554  0.00  0.00    +0.000 Cl
ATOM      6  C   UNL     1     -54.455 -47.445 -76.088  0.00  0.00    +0.000 A 
ATOM      7  C   UNL     1     -55.196 -48.517 -76.592  0.00  0.00    +0.000 A 
ATOM      8  C   UNL     1     -56.452 -48.295 -77.172  0.00  0.00    +0.000 A 
ATOM      9 CL   UNL     1     -57.241 -49.686 -77.820  0.00  0.00    +0.000 Cl
ATOM     10  C   UNL     1     -56.979 -46.996 -77.223  0.00  0.00    +0.000 A 
ATOM     11  C   UNL     1     -58.329 -46.654 -77.740  0.00  0.00    +0.000 A 
ATOM     12  O   UNL     1     -59.221 -47.493 -77.686  0.00  0.00    +0.000 OA
ATOM     13  C   UNL     1     -58.600 -45.242 -78.243  0.00  0.00    +0.000 A 
ATOM     14  H   UNL     1     -56.203 -43.852 -76.509  0.00  0.00    +0.000 HD
ENDROOT
BRANCH   1  15
ATOM     15  S   UNL     1     -57.953 -42.484 -77.850  0.00  0.00    +0.000 S 
ATOM     16  O   UNL     1     -57.645 -42.337 -79.316  0.00  0.00    +0.000 OA
BRANCH  15  17
ATOM     17  C   UNL     1     -56.494 -41.869 -76.916  0.00  0.00    +0.000 C 
BRANCH  17  21
ATOM     18  C   UNL     1     -57.078 -41.252 -71.815  0.00  0.00    +0.000 C 
ATOM     19  C   UNL     1     -57.015 -41.249 -73.292  0.00  0.00    +0.000 A 
ATOM     20  C   UNL     1     -56.348 -41.989 -74.242  0.00  0.00    +0.000 A 
ATOM     21  C   UNL     1     -56.793 -41.473 -75.491  0.00  0.00    +0.000 A 
ATOM     22  N   UNL     1     -57.652 -40.459 -75.289  0.00  0.00    +0.000 NA
ATOM     23  O   UNL     1     -57.791 -40.328 -73.920  0.00  0.00    +0.000 OA
ENDBRANCH  17  21
ENDBRANCH  15  17
ENDBRANCH   1  15
BRANCH  13  24
ATOM     24  C   UNL     1     -59.587 -45.155 -79.390  0.00  0.00    +0.000 C 
ATOM     25  O   UNL     1     -59.213 -45.406 -80.543  0.00  0.00    +0.000 OA
BRANCH  24  26
ATOM     26  C   UNL     1     -60.996 -44.624 -79.207  0.00  0.00    +0.000 C 
ATOM     27  C   UNL     1     -61.410 -44.759 -77.753  0.00  0.00    +0.000 C 
ATOM     28  C   UNL     1     -61.139 -43.208 -79.752  0.00  0.00    +0.000 C 
ENDBRANCH  24  26
ENDBRANCH  13  24
TORSDOF 5
