REMARK VINA RESULT:    -6.553      3.737      6.950
REMARK INTER + INTRA:          -9.342
REMARK INTER:                  -8.746
REMARK INTRA:                  -0.596
REMARK UNBOUND:                -0.873
REMARK  Name = 
REMARK  6 active torsions:
REMARK  status: ('A' for Active; 'I' for Inactive)
REMARK    1  A    between atoms: C_1  and  C_2
REMARK    2  A    between atoms: C_4  and  C_5
REMARK    3  A    between atoms: C_5  and  S_6
REMARK    4  A    between atoms: S_6  and  C_8
REMARK    5  A    between atoms: C_20  and  C_21
REMARK    6  A    between atoms: C_21  and  C_23
REMARK                            x       y       z     vdW  Elec       q    Type
REMARK                         _______ _______ _______ _____ _____    ______ ____
ROOT
ATOM      1  C   UNL     1     -55.402 -42.358 -77.800  0.00  0.00    +0.000 A 
ATOM      2  N   UNL     1     -56.710 -42.837 -77.589  0.00  0.00    +0.000 N 
ATOM      3  C   UNL     1     -57.391 -42.570 -76.370  0.00  0.00    +0.000 A 
ATOM      4  C   UNL     1     -58.789 -42.664 -76.234  0.00  0.00    +0.000 A 
ATOM      5 BR   UNL     1     -59.899 -42.988 -77.738  0.00  0.00    +0.000 Br
ATOM      6  C   UNL     1     -59.409 -42.500 -74.988  0.00  0.00    +0.000 A 
ATOM      7  C   UNL     1     -58.633 -42.209 -73.861  0.00  0.00    +0.000 A 
ATOM      8  C   UNL     1     -57.246 -42.108 -73.971  0.00  0.00    +0.000 A 
ATOM      9 CL   UNL     1     -56.386 -41.675 -72.537  0.00  0.00    +0.000 Cl
ATOM     10  C   UNL     1     -56.633 -42.311 -75.217  0.00  0.00    +0.000 A 
ATOM     11  C   UNL     1     -55.171 -42.309 -75.414  0.00  0.00    +0.000 A 
ATOM     12  O   UNL     1     -54.401 -42.665 -74.530  0.00  0.00    +0.000 OA
ATOM     13  C   UNL     1     -54.643 -41.932 -76.766  0.00  0.00    +0.000 A 
ATOM     14  H   UNL     1     -57.301 -42.735 -78.425  0.00  0.00    +0.000 HD
ENDROOT
BRANCH   1  15
ATOM     15  S   UNL     1     -55.074 -41.973 -79.540  0.00  0.00    +0.000 S 
ATOM     16  O   UNL     1     -56.184 -42.660 -80.286  0.00  0.00    +0.000 OA
BRANCH  15  17
ATOM     17  C   UNL     1     -53.513 -42.751 -80.049  0.00  0.00    +0.000 C 
BRANCH  17  21
ATOM     18  C   UNL     1     -50.309 -41.798 -83.927  0.00  0.00    +0.000 C 
ATOM     19  C   UNL     1     -51.378 -41.971 -82.927  0.00  0.00    +0.000 A 
ATOM     20  C   UNL     1     -51.482 -42.635 -81.728  0.00  0.00    +0.000 A 
ATOM     21  C   UNL     1     -52.767 -42.300 -81.246  0.00  0.00    +0.000 A 
ATOM     22  N   UNL     1     -53.421 -41.536 -82.139  0.00  0.00    +0.000 NA
ATOM     23  O   UNL     1     -52.547 -41.332 -83.187  0.00  0.00    +0.000 OA
ENDBRANCH  17  21
ENDBRANCH  15  17
ENDBRANCH   1  15
BRANCH  13  24
ATOM     24  C   UNL     1     -53.473 -41.009 -76.717  0.00  0.00    +0.000 C 
ATOM     25  O   UNL     1     -53.624 -39.809 -76.862  0.00  0.00    +0.000 OA
BRANCH  24  26
ATOM     26  C   UNL     1     -52.137 -41.570 -76.443  0.00  0.00    +0.000 C 
ATOM     27  C   UNL     1     -50.965 -40.639 -76.265  0.00  0.00    +0.000 C 
ATOM     28  C   UNL     1     -51.038 -41.517 -77.477  0.00  0.00    +0.000 C 
ENDBRANCH  24  26
ENDBRANCH  13  24
TORSDOF 5
