REMARK VINA RESULT:    -5.199     11.143     13.086
REMARK INTER + INTRA:          -7.618
REMARK INTER:                  -6.707
REMARK INTRA:                  -0.910
REMARK UNBOUND:                -0.899
REMARK  Name = 
REMARK  6 active torsions:
REMARK  status: ('A' for Active; 'I' for Inactive)
REMARK    1  A    between atoms: C_1  and  C_2
REMARK    2  A    between atoms: C_4  and  C_5
REMARK    3  A    between atoms: C_5  and  S_6
REMARK    4  A    between atoms: S_6  and  C_8
REMARK    5  A    between atoms: C_20  and  C_21
REMARK    6  A    between atoms: C_21  and  C_23
REMARK                            x       y       z     vdW  Elec       q    Type
REMARK                         _______ _______ _______ _____ _____    ______ ____
ROOT
ATOM      1  C   UNL     1     -65.834 -41.454 -70.278  0.00  0.00    +0.000 A 
ATOM      2  N   UNL     1     -64.533 -41.566 -70.807  0.00  0.00    +0.000 N 
ATOM      3  C   UNL     1     -63.413 -41.720 -69.946  0.00  0.00    +0.000 A 
ATOM      4  C   UNL     1     -62.171 -42.219 -70.382  0.00  0.00    +0.000 A 
ATOM      5 BR   UNL     1     -61.953 -42.900 -72.140  0.00  0.00    +0.000 Br
ATOM      6  C   UNL     1     -61.061 -42.252 -69.527  0.00  0.00    +0.000 A 
ATOM      7  C   UNL     1     -61.191 -41.807 -68.206  0.00  0.00    +0.000 A 
ATOM      8  C   UNL     1     -62.412 -41.310 -67.750  0.00  0.00    +0.000 A 
ATOM      9 CL   UNL     1     -62.488 -40.855 -66.086  0.00  0.00    +0.000 Cl
ATOM     10  C   UNL     1     -63.506 -41.250 -68.626  0.00  0.00    +0.000 A 
ATOM     11  C   UNL     1     -64.810 -40.662 -68.260  0.00  0.00    +0.000 A 
ATOM     12  O   UNL     1     -64.900 -39.751 -67.447  0.00  0.00    +0.000 OA
ATOM     13  C   UNL     1     -66.031 -41.160 -68.974  0.00  0.00    +0.000 A 
ATOM     14  H   UNL     1     -64.502 -42.170 -71.640  0.00  0.00    +0.000 HD
ENDROOT
BRANCH   1  15
ATOM     15  S   UNL     1     -67.093 -42.165 -71.370  0.00  0.00    +0.000 S 
ATOM     16  O   UNL     1     -67.311 -43.552 -70.829  0.00  0.00    +0.000 OA
BRANCH  15  17
ATOM     17  C   UNL     1     -66.415 -42.337 -73.047  0.00  0.00    +0.000 C 
BRANCH  17  21
ATOM     18  C   UNL     1     -68.997 -44.144 -77.082  0.00  0.00    +0.000 C 
ATOM     19  C   UNL     1     -68.190 -43.825 -75.890  0.00  0.00    +0.000 A 
ATOM     20  C   UNL     1     -67.843 -42.664 -75.240  0.00  0.00    +0.000 A 
ATOM     21  C   UNL     1     -67.123 -43.095 -74.104  0.00  0.00    +0.000 A 
ATOM     22  N   UNL     1     -66.986 -44.433 -74.112  0.00  0.00    +0.000 NA
ATOM     23  O   UNL     1     -67.656 -44.883 -75.230  0.00  0.00    +0.000 OA
ENDBRANCH  17  21
ENDBRANCH  15  17
ENDBRANCH   1  15
BRANCH  13  24
ATOM     24  C   UNL     1     -67.194 -41.403 -68.074  0.00  0.00    +0.000 C 
ATOM     25  O   UNL     1     -68.188 -40.701 -68.143  0.00  0.00    +0.000 OA
BRANCH  24  26
ATOM     26  C   UNL     1     -67.140 -42.536 -67.131  0.00  0.00    +0.000 C 
ATOM     27  C   UNL     1     -66.417 -43.798 -67.530  0.00  0.00    +0.000 C 
ATOM     28  C   UNL     1     -67.909 -43.809 -67.392  0.00  0.00    +0.000 C 
ENDBRANCH  24  26
ENDBRANCH  13  24
TORSDOF 5
