REMARK VINA RESULT:    -4.813     11.291     13.706
REMARK INTER + INTRA:          -6.654
REMARK INTER:                  -5.872
REMARK INTRA:                  -0.782
REMARK UNBOUND:                -0.716
REMARK  Name = 
REMARK  6 active torsions:
REMARK  status: ('A' for Active; 'I' for Inactive)
REMARK    1  A    between atoms: C_1  and  C_2
REMARK    2  A    between atoms: C_2  and  C_4
REMARK    3  A    between atoms: C_5  and  S_6
REMARK    4  A    between atoms: S_6  and  C_8
REMARK    5  A    between atoms: C_8  and  C_9
REMARK    6  A    between atoms: C_11  and  C_12
REMARK                            x       y       z     vdW  Elec       q    Type
REMARK                         _______ _______ _______ _____ _____    ______ ____
ROOT
ATOM      1  C   UNL     1     -66.710 -42.729 -69.034  0.00  0.00    +0.000 A 
ATOM      2  C   UNL     1     -67.323 -43.140 -70.166  0.00  0.00    +0.000 A 
ATOM      3  N   UNL     1     -66.643 -43.596 -71.279  0.00  0.00    +0.000 N 
ATOM      4  C   UNL     1     -65.245 -43.523 -71.398  0.00  0.00    +0.000 A 
ATOM      5  C   UNL     1     -64.601 -43.946 -72.575  0.00  0.00    +0.000 A 
ATOM      6 BR   UNL     1     -65.598 -44.549 -74.076  0.00  0.00    +0.000 Br
ATOM      7  C   UNL     1     -63.212 -43.927 -72.680  0.00  0.00    +0.000 A 
ATOM      8  C   UNL     1     -62.449 -43.496 -71.598  0.00  0.00    +0.000 A 
ATOM      9  C   UNL     1     -63.064 -43.093 -70.409  0.00  0.00    +0.000 A 
ATOM     10 CL   UNL     1     -61.984 -42.574 -69.161  0.00  0.00    +0.000 Cl
ATOM     11  C   UNL     1     -64.470 -43.125 -70.296  0.00  0.00    +0.000 A 
ATOM     12  C   UNL     1     -65.205 -42.720 -69.064  0.00  0.00    +0.000 A 
ATOM     13  O   UNL     1     -64.581 -42.337 -68.080  0.00  0.00    +0.000 OA
ATOM     14  H   UNL     1     -67.157 -43.530 -72.161  0.00  0.00    +0.000 HD
ENDROOT
BRANCH   1  16
ATOM     15  C   UNL     1     -67.896 -43.264 -66.772  0.00  0.00    +0.000 C 
ATOM     16  C   UNL     1     -67.429 -42.253 -67.795  0.00  0.00    +0.000 C 
ATOM     17  O   UNL     1     -67.657 -41.059 -67.598  0.00  0.00    +0.000 OA
ENDBRANCH   1  16
BRANCH   2  18
ATOM     18  S   UNL     1     -69.123 -42.960 -70.389  0.00  0.00    +0.000 S 
ATOM     19  O   UNL     1     -69.264 -41.593 -71.004  0.00  0.00    +0.000 OA
BRANCH  18  20
ATOM     20  C   UNL     1     -69.382 -44.155 -71.752  0.00  0.00    +0.000 C 
BRANCH  20  21
ATOM     21  C   UNL     1     -69.861 -45.481 -71.258  0.00  0.00    +0.000 A 
ATOM     22  C   UNL     1     -70.507 -46.539 -71.950  0.00  0.00    +0.000 A 
ATOM     23  C   UNL     1     -70.716 -47.503 -70.995  0.00  0.00    +0.000 A 
ATOM     24  C   UNL     1     -71.377 -48.822 -70.984  0.00  0.00    +0.000 C 
ATOM     25  O   UNL     1     -70.184 -47.084 -69.818  0.00  0.00    +0.000 OA
ATOM     26  N   UNL     1     -69.641 -45.821 -69.979  0.00  0.00    +0.000 NA
ENDBRANCH  20  21
ENDBRANCH  18  20
ENDBRANCH   2  18
TORSDOF 4
