REMARK VINA RESULT:    -5.406      9.354     12.322
REMARK INTER + INTRA:          -7.849
REMARK INTER:                  -6.893
REMARK INTRA:                  -0.956
REMARK UNBOUND:                -0.863
REMARK  Name = 
REMARK  6 active torsions:
REMARK  status: ('A' for Active; 'I' for Inactive)
REMARK    1  A    between atoms: C_1  and  C_2
REMARK    2  A    between atoms: C_4  and  C_5
REMARK    3  A    between atoms: C_5  and  S_6
REMARK    4  A    between atoms: S_6  and  C_8
REMARK    5  A    between atoms: C_20  and  C_21
REMARK    6  A    between atoms: C_21  and  C_23
REMARK                            x       y       z     vdW  Elec       q    Type
REMARK                         _______ _______ _______ _____ _____    ______ ____
ROOT
ATOM      1  C   UNL     1     -64.260 -43.440 -69.543  0.00  0.00    +0.000 A 
ATOM      2  N   UNL     1     -65.277 -43.585 -68.580  0.00  0.00    +0.000 N 
ATOM      3  C   UNL     1     -65.731 -42.465 -67.832  0.00  0.00    +0.000 A 
ATOM      4  C   UNL     1     -66.967 -42.439 -67.160  0.00  0.00    +0.000 A 
ATOM      5 BR   UNL     1     -68.217 -43.853 -67.355  0.00  0.00    +0.000 Br
ATOM      6  C   UNL     1     -67.326 -41.358 -66.343  0.00  0.00    +0.000 A 
ATOM      7  C   UNL     1     -66.456 -40.270 -66.212  0.00  0.00    +0.000 A 
ATOM      8  C   UNL     1     -65.226 -40.272 -66.869  0.00  0.00    +0.000 A 
ATOM      9 CL   UNL     1     -64.257 -38.853 -66.701  0.00  0.00    +0.000 Cl
ATOM     10  C   UNL     1     -64.862 -41.376 -67.655  0.00  0.00    +0.000 A 
ATOM     11  C   UNL     1     -63.550 -41.505 -68.318  0.00  0.00    +0.000 A 
ATOM     12  O   UNL     1     -62.538 -41.002 -67.847  0.00  0.00    +0.000 OA
ATOM     13  C   UNL     1     -63.468 -42.345 -69.558  0.00  0.00    +0.000 A 
ATOM     14  H   UNL     1     -66.036 -44.200 -68.905  0.00  0.00    +0.000 HD
ENDROOT
BRANCH   1  15
ATOM     15  S   UNL     1     -64.447 -44.588 -70.933  0.00  0.00    +0.000 S 
ATOM     16  O   UNL     1     -63.111 -45.273 -71.028  0.00  0.00    +0.000 OA
BRANCH  15  17
ATOM     17  C   UNL     1     -64.685 -43.647 -72.469  0.00  0.00    +0.000 C 
BRANCH  17  21
ATOM     18  C   UNL     1     -68.430 -40.182 -72.907  0.00  0.00    +0.000 C 
ATOM     19  C   UNL     1     -67.459 -41.292 -72.926  0.00  0.00    +0.000 A 
ATOM     20  C   UNL     1     -66.236 -41.518 -72.339  0.00  0.00    +0.000 A 
ATOM     21  C   UNL     1     -65.903 -42.839 -72.711  0.00  0.00    +0.000 A 
ATOM     22  N   UNL     1     -66.839 -43.349 -73.531  0.00  0.00    +0.000 NA
ATOM     23  O   UNL     1     -67.810 -42.378 -73.660  0.00  0.00    +0.000 OA
ENDBRANCH  17  21
ENDBRANCH  15  17
ENDBRANCH   1  15
BRANCH  13  24
ATOM     24  C   UNL     1     -62.659 -41.728 -70.647  0.00  0.00    +0.000 C 
ATOM     25  O   UNL     1     -63.015 -40.686 -71.169  0.00  0.00    +0.000 OA
BRANCH  24  26
ATOM     26  C   UNL     1     -61.396 -42.375 -71.050  0.00  0.00    +0.000 C 
ATOM     27  C   UNL     1     -60.396 -41.602 -71.871  0.00  0.00    +0.000 C 
ATOM     28  C   UNL     1     -61.133 -42.752 -72.488  0.00  0.00    +0.000 C 
ENDBRANCH  24  26
ENDBRANCH  13  24
TORSDOF 5
