=
 OpenBabel09162514353D

 28 30  0  0  0  0  0  0  0  0999 V2000
  -55.6600  -42.6380  -76.5140 C   0  0  0  0  0  0  0  0  0  0  0  0
  -54.3320  -42.9860  -76.2770 N   0  0  0  0  0  0  0  0  0  0  0  0
  -53.3140  -42.0120  -76.1970 C   0  0  0  0  0  0  0  0  0  0  0  0
  -52.0720  -42.2780  -75.5880 C   0  0  0  0  0  0  0  0  0  0  0  0
  -51.7950  -43.7700  -74.7620 Cl  0  0  0  0  0  0  0  0  0  0  0  0
  -51.0430  -41.3360  -75.6130 C   0  0  0  0  0  3  0  0  0  0  0  0
  -51.2470  -40.1080  -76.2470 C   0  0  0  0  0  3  0  0  0  0  0  0
  -52.4800  -39.8200  -76.8450 C   0  0  0  0  0  0  0  0  0  0  0  0
  -52.6340  -38.2470  -77.5370 Cl  0  0  0  0  0  0  0  0  0  0  0  0
  -53.5070  -40.7760  -76.8290 C   0  0  0  0  0  0  0  0  0  0  0  0
  -54.8230  -40.6120  -77.4980 C   0  0  0  0  0  0  0  0  0  0  0  0
  -54.9070  -39.8860  -78.4810 O   0  0  0  0  0  0  0  0  0  0  0  0
  -56.0180  -41.4160  -77.0010 C   0  0  0  0  0  0  0  0  0  0  0  0
  -54.2250  -43.7890  -75.6430 H   0  0  0  0  0  0  0  0  0  0  0  0
  -56.8080  -43.9160  -75.8610 S   0  0  2  0  0  0  0  0  0  0  0  0
  -57.4660  -44.4680  -77.0960 O   0  0  0  0  0  0  0  0  0  0  0  0
  -58.0660  -42.9160  -74.9670 C   0  0  0  0  0  2  0  0  0  0  0  0
  -55.6560  -41.3750  -70.6590 C   0  0  0  0  0  1  0  0  0  0  0  0
  -56.5120  -41.7170  -71.8160 C   0  0  0  0  0  0  0  0  0  0  0  0
  -56.2990  -42.2740  -73.0550 C   0  0  0  0  0  3  0  0  0  0  0  0
  -57.5910  -42.3590  -73.6480 C   0  0  0  0  0  0  0  0  0  0  0  0
  -58.5120  -41.8480  -72.8140 N   0  0  0  0  0  0  0  0  0  0  0  0
  -57.8370  -41.4560  -71.6740 O   0  0  0  0  0  0  0  0  0  0  0  0
  -57.3520  -40.7090  -77.1220 C   0  0  0  0  0  0  0  0  0  0  0  0
  -57.6350  -39.7910  -76.3410 O   0  0  0  0  0  0  0  0  0  0  0  0
  -58.4340  -41.1810  -78.0750 C   0  0  0  0  0  3  0  0  0  0  0  0
  -59.4950  -40.1060  -78.2180 C   0  0  0  0  0  1  0  0  0  0  0  0
  -57.8510  -41.6430  -79.4050 C   0  0  0  0  0  1  0  0  0  0  0  0
  1  2  1  0  0  0  0
  1 15  1  0  0  0  0
  2  3  1  0  0  0  0
  2 14  1  0  0  0  0
  3  4  1  0  0  0  0
  4  5  1  0  0  0  0
  6  4  2  0  0  0  0
  7  6  1  0  0  0  0
  8 10  1  0  0  0  0
  8  7  2  0  0  0  0
  9  8  1  0  0  0  0
 10  3  2  0  0  0  0
 11 13  1  0  0  0  0
 11 10  1  0  0  0  0
 12 11  2  0  0  0  0
 13  1  2  0  0  0  0
 15 16  2  6  0  0  0
 15 17  1  0  0  0  0
 17 21  1  0  0  0  0
 19 23  1  0  0  0  0
 19 18  1  0  0  0  0
 20 19  2  0  0  0  0
 21 20  1  0  0  0  0
 21 22  2  0  0  0  0
 22 23  1  0  0  0  0
 24 13  1  0  0  0  0
 24 25  2  0  0  0  0
 26 24  1  0  0  0  0
 27 26  1  0  0  0  0
 28 26  1  0  0  0  0
M  END
>  <MODEL>
1

>  <REMARK>
 VINA RESULT:    -7.603      0.000      0.000
 INTER + INTRA:         -10.719
 INTER:                  -9.825
 INTRA:                  -0.894
 UNBOUND:                -0.894
  Name = 
  8 active torsions:
  status: ('A' for Active; 'I' for Inactive)
    1  A    between atoms: C_1  and  C_2
    2  A    between atoms: C_4  and  C_5
    3  A    between atoms: C_5  and  S_6
    4  A    between atoms: S_6  and  C_8
    5  A    between atoms: C_20  and  C_21
    6  A    between atoms: C_21  and  C_23
    7  A    between atoms: C_23  and  C_24
    8  A    between atoms: C_23  and  C_25
                            x       y       z     vdW  Elec       q    Type
                         _______ _______ _______ _____ _____    ______ ____

>  <TORSDO>
F 5

$$$$
