REMARK VINA RESULT:    -4.842      4.287      6.335
REMARK INTER + INTRA:          -7.495
REMARK INTER:                  -6.283
REMARK INTRA:                  -1.212
REMARK UNBOUND:                -1.238
REMARK  Name = 
REMARK  8 active torsions:
REMARK  status: ('A' for Active; 'I' for Inactive)
REMARK    1  A    between atoms: C_1  and  C_2
REMARK    2  A    between atoms: C_4  and  C_5
REMARK    3  A    between atoms: C_5  and  S_6
REMARK    4  A    between atoms: S_6  and  C_8
REMARK    5  A    between atoms: C_20  and  C_21
REMARK    6  A    between atoms: C_21  and  C_23
REMARK    7  A    between atoms: C_23  and  C_24
REMARK    8  A    between atoms: C_23  and  C_25
REMARK                            x       y       z     vdW  Elec       q    Type
REMARK                         _______ _______ _______ _____ _____    ______ ____
ROOT
ATOM      1  C   UNL     1     -57.852 -39.179 -61.911  0.00  0.00    +0.000 A 
ATOM      2  N   UNL     1     -56.928 -38.593 -62.770  0.00  0.00    +0.000 N 
ATOM      3  C   UNL     1     -56.683 -37.206 -62.757  0.00  0.00    +0.000 A 
ATOM      4  C   UNL     1     -55.503 -36.648 -63.285  0.00  0.00    +0.000 A 
ATOM      5 BR   UNL     1     -54.092 -37.755 -63.902  0.00  0.00    +0.000 Br
ATOM      6  C   UNL     1     -55.321 -35.263 -63.330  0.00  0.00    +0.000 A 
ATOM      7  C   UNL     1     -56.312 -34.416 -62.843  0.00  0.00    +0.000 A 
ATOM      8  C   UNL     1     -57.495 -34.953 -62.305  0.00  0.00    +0.000 A 
ATOM      9 CL   UNL     1     -58.619 -33.807 -61.668  0.00  0.00    +0.000 Cl
ATOM     10  C   UNL     1     -57.683 -36.350 -62.266  0.00  0.00    +0.000 A 
ATOM     11  C   UNL     1     -58.907 -37.014 -61.749  0.00  0.00    +0.000 A 
ATOM     12  O   UNL     1     -59.973 -36.407 -61.727  0.00  0.00    +0.000 OA
ATOM     13  C   UNL     1     -58.806 -38.460 -61.273  0.00  0.00    +0.000 A 
ATOM     14  H   UNL     1     -56.118 -39.192 -62.984  0.00  0.00    +0.000 HD
ENDROOT
BRANCH   1  15
ATOM     15  S   UNL     1     -57.464 -40.945 -61.609  0.00  0.00    +0.000 S 
ATOM     16  O   UNL     1     -56.819 -40.944 -60.250  0.00  0.00    +0.000 OA
BRANCH  15  17
ATOM     17  C   UNL     1     -56.183 -41.311 -62.857  0.00  0.00    +0.000 C 
BRANCH  17  21
ATOM     18  C   UNL     1     -57.881 -43.728 -67.108  0.00  0.00    +0.000 C 
ATOM     19  C   UNL     1     -57.440 -42.861 -65.994  0.00  0.00    +0.000 A 
ATOM     20  C   UNL     1     -57.032 -43.074 -64.697  0.00  0.00    +0.000 A 
ATOM     21  C   UNL     1     -56.719 -41.780 -64.189  0.00  0.00    +0.000 A 
ATOM     22  N   UNL     1     -56.954 -40.852 -65.133  0.00  0.00    +0.000 NA
ATOM     23  O   UNL     1     -57.397 -41.529 -66.253  0.00  0.00    +0.000 OA
ENDBRANCH  17  21
ENDBRANCH  15  17
ENDBRANCH   1  15
BRANCH  13  24
ATOM     24  C   UNL     1     -59.736 -38.874 -60.154  0.00  0.00    +0.000 C 
ATOM     25  O   UNL     1     -60.690 -39.616 -60.384  0.00  0.00    +0.000 OA
BRANCH  24  26
ATOM     26  C   UNL     1     -59.538 -38.321 -58.742  0.00  0.00    +0.000 C 
ATOM     27  C   UNL     1     -60.269 -39.162 -57.697  0.00  0.00    +0.000 C 
ATOM     28  C   UNL     1     -58.056 -38.194 -58.379  0.00  0.00    +0.000 C 
ENDBRANCH  24  26
ENDBRANCH  13  24
TORSDOF 5
