REMARK VINA RESULT:    -4.843     11.877     15.241
REMARK INTER + INTRA:          -6.691
REMARK INTER:                  -5.994
REMARK INTRA:                  -0.697
REMARK UNBOUND:                -0.716
REMARK  Name = 
REMARK  6 active torsions:
REMARK  status: ('A' for Active; 'I' for Inactive)
REMARK    1  A    between atoms: C_1  and  C_2
REMARK    2  A    between atoms: C_2  and  C_4
REMARK    3  A    between atoms: C_5  and  S_6
REMARK    4  A    between atoms: S_6  and  C_8
REMARK    5  A    between atoms: C_8  and  C_9
REMARK    6  A    between atoms: C_11  and  C_12
REMARK                            x       y       z     vdW  Elec       q    Type
REMARK                         _______ _______ _______ _____ _____    ______ ____
ROOT
ATOM      1  C   UNL     1     -55.819 -39.453 -59.821  0.00  0.00    +0.000 A 
ATOM      2  C   UNL     1     -56.037 -39.532 -61.152  0.00  0.00    +0.000 A 
ATOM      3  N   UNL     1     -55.575 -38.595 -62.057  0.00  0.00    +0.000 N 
ATOM      4  C   UNL     1     -54.974 -37.388 -61.660  0.00  0.00    +0.000 A 
ATOM      5  C   UNL     1     -54.572 -36.438 -62.616  0.00  0.00    +0.000 A 
ATOM      6 BR   UNL     1     -54.902 -36.710 -64.468  0.00  0.00    +0.000 Br
ATOM      7  C   UNL     1     -53.927 -35.264 -62.234  0.00  0.00    +0.000 A 
ATOM      8  C   UNL     1     -53.664 -35.034 -60.887  0.00  0.00    +0.000 A 
ATOM      9  C   UNL     1     -54.032 -35.973 -59.920  0.00  0.00    +0.000 A 
ATOM     10 CL   UNL     1     -53.649 -35.540 -58.290  0.00  0.00    +0.000 Cl
ATOM     11  C   UNL     1     -54.673 -37.169 -60.306  0.00  0.00    +0.000 A 
ATOM     12  C   UNL     1     -55.092 -38.226 -59.342  0.00  0.00    +0.000 A 
ATOM     13  O   UNL     1     -54.880 -38.075 -58.143  0.00  0.00    +0.000 OA
ATOM     14  H   UNL     1     -56.086 -38.554 -62.941  0.00  0.00    +0.000 HD
ENDROOT
BRANCH   1  16
ATOM     15  C   UNL     1     -55.403 -41.657 -58.486  0.00  0.00    +0.000 C 
ATOM     16  C   UNL     1     -56.289 -40.477 -58.815  0.00  0.00    +0.000 C 
ATOM     17  O   UNL     1     -57.384 -40.382 -58.259  0.00  0.00    +0.000 OA
ENDBRANCH   1  16
BRANCH   2  18
ATOM     18  S   UNL     1     -57.127 -40.809 -61.862  0.00  0.00    +0.000 S 
ATOM     19  O   UNL     1     -57.852 -40.078 -62.961  0.00  0.00    +0.000 OA
BRANCH  18  20
ATOM     20  C   UNL     1     -55.873 -41.852 -62.693  0.00  0.00    +0.000 C 
BRANCH  20  21
ATOM     21  C   UNL     1     -56.302 -42.271 -64.062  0.00  0.00    +0.000 A 
ATOM     22  C   UNL     1     -57.320 -43.174 -64.467  0.00  0.00    +0.000 A 
ATOM     23  C   UNL     1     -57.261 -43.172 -65.839  0.00  0.00    +0.000 A 
ATOM     24  C   UNL     1     -57.968 -43.904 -66.906  0.00  0.00    +0.000 C 
ATOM     25  O   UNL     1     -56.311 -42.288 -66.240  0.00  0.00    +0.000 OA
ATOM     26  N   UNL     1     -55.713 -41.715 -65.131  0.00  0.00    +0.000 NA
ENDBRANCH  20  21
ENDBRANCH  18  20
ENDBRANCH   2  18
TORSDOF 4
