REMARK VINA RESULT:    -5.956     14.974     17.234
REMARK INTER + INTRA:          -8.852
REMARK INTER:                  -7.876
REMARK INTRA:                  -0.977
REMARK UNBOUND:                -1.155
REMARK  Name = 
REMARK  6 active torsions:
REMARK  status: ('A' for Active; 'I' for Inactive)
REMARK    1  A    between atoms: C_1  and  C_2
REMARK    2  A    between atoms: C_4  and  C_5
REMARK    3  A    between atoms: C_5  and  S_6
REMARK    4  A    between atoms: S_6  and  C_8
REMARK    5  A    between atoms: C_20  and  C_21
REMARK    6  A    between atoms: C_21  and  C_23
REMARK                            x       y       z     vdW  Elec       q    Type
REMARK                         _______ _______ _______ _____ _____    ______ ____
ROOT
ATOM      1  C   UNL     1     -54.801 -42.374 -78.875  0.00  0.00    +0.000 A 
ATOM      2  N   UNL     1     -54.656 -42.781 -77.534  0.00  0.00    +0.000 N 
ATOM      3  C   UNL     1     -54.556 -44.161 -77.204  0.00  0.00    +0.000 A 
ATOM      4  C   UNL     1     -54.030 -44.621 -75.982  0.00  0.00    +0.000 A 
ATOM      5 BR   UNL     1     -53.242 -43.422 -74.741  0.00  0.00    +0.000 Br
ATOM      6  C   UNL     1     -54.051 -45.983 -75.651  0.00  0.00    +0.000 A 
ATOM      7  C   UNL     1     -54.577 -46.909 -76.560  0.00  0.00    +0.000 A 
ATOM      8  C   UNL     1     -55.102 -46.476 -77.778  0.00  0.00    +0.000 A 
ATOM      9 CL   UNL     1     -55.660 -47.702 -78.859  0.00  0.00    +0.000 Cl
ATOM     10  C   UNL     1     -55.108 -45.106 -78.082  0.00  0.00    +0.000 A 
ATOM     11  C   UNL     1     -55.716 -44.548 -79.305  0.00  0.00    +0.000 A 
ATOM     12  O   UNL     1     -56.677 -45.080 -79.848  0.00  0.00    +0.000 OA
ATOM     13  C   UNL     1     -55.175 -43.252 -79.831  0.00  0.00    +0.000 A 
ATOM     14  H   UNL     1     -54.001 -42.182 -77.014  0.00  0.00    +0.000 HD
ENDROOT
BRANCH   1  15
ATOM     15  S   UNL     1     -54.023 -40.771 -79.203  0.00  0.00    +0.000 S 
ATOM     16  O   UNL     1     -52.636 -41.122 -79.671  0.00  0.00    +0.000 OA
BRANCH  15  17
ATOM     17  C   UNL     1     -53.855 -39.848 -77.647  0.00  0.00    +0.000 C 
BRANCH  17  21
ATOM     18  C   UNL     1     -49.532 -38.503 -75.255  0.00  0.00    +0.000 C 
ATOM     19  C   UNL     1     -50.737 -39.087 -75.873  0.00  0.00    +0.000 A 
ATOM     20  C   UNL     1     -51.815 -38.579 -76.558  0.00  0.00    +0.000 A 
ATOM     21  C   UNL     1     -52.554 -39.717 -76.951  0.00  0.00    +0.000 A 
ATOM     22  N   UNL     1     -51.987 -40.837 -76.468  0.00  0.00    +0.000 NA
ATOM     23  O   UNL     1     -50.851 -40.437 -75.797  0.00  0.00    +0.000 OA
ENDBRANCH  17  21
ENDBRANCH  15  17
ENDBRANCH   1  15
BRANCH  13  24
ATOM     24  C   UNL     1     -54.989 -43.237 -81.310  0.00  0.00    +0.000 C 
ATOM     25  O   UNL     1     -55.809 -42.698 -82.033  0.00  0.00    +0.000 OA
BRANCH  24  26
ATOM     26  C   UNL     1     -53.771 -43.844 -81.880  0.00  0.00    +0.000 C 
ATOM     27  C   UNL     1     -53.709 -44.134 -83.358  0.00  0.00    +0.000 C 
ATOM     28  C   UNL     1     -53.768 -45.269 -82.382  0.00  0.00    +0.000 C 
ENDBRANCH  24  26
ENDBRANCH  13  24
TORSDOF 5
