REMARK VINA RESULT:    -6.207     11.271     13.416
REMARK INTER + INTRA:          -8.894
REMARK INTER:                  -8.005
REMARK INTRA:                  -0.888
REMARK UNBOUND:                -1.235
REMARK  Name = 
REMARK  5 active torsions:
REMARK  status: ('A' for Active; 'I' for Inactive)
REMARK    1  A    between atoms: C_1  and  C_2
REMARK    2  A    between atoms: C_2  and  C_4
REMARK    3  A    between atoms: C_5  and  S_6
REMARK    4  A    between atoms: S_6  and  C_8
REMARK    5  A    between atoms: C_8  and  C_9
REMARK                            x       y       z     vdW  Elec       q    Type
REMARK                         _______ _______ _______ _____ _____    ______ ____
ROOT
ATOM      1  C   UNL     1     -58.777 -45.359 -77.951  0.00  0.00    +0.000 A 
ATOM      2  C   UNL     1     -57.995 -44.377 -77.443  0.00  0.00    +0.000 A 
ATOM      3  N   UNL     1     -56.743 -44.609 -76.903  0.00  0.00    +0.000 N 
ATOM      4  C   UNL     1     -56.214 -45.895 -76.716  0.00  0.00    +0.000 A 
ATOM      5  C   UNL     1     -54.938 -46.076 -76.153  0.00  0.00    +0.000 A 
ATOM      6 BR   UNL     1     -53.915 -44.591 -75.554  0.00  0.00    +0.000 Br
ATOM      7  C   UNL     1     -54.385 -47.347 -76.018  0.00  0.00    +0.000 A 
ATOM      8  C   UNL     1     -55.103 -48.458 -76.452  0.00  0.00    +0.000 A 
ATOM      9  C   UNL     1     -56.365 -48.303 -77.037  0.00  0.00    +0.000 A 
ATOM     10 CL   UNL     1     -57.136 -49.776 -77.518  0.00  0.00    +0.000 Cl
ATOM     11  C   UNL     1     -56.919 -47.015 -77.192  0.00  0.00    +0.000 A 
ATOM     12  C   UNL     1     -58.247 -46.764 -77.818  0.00  0.00    +0.000 A 
ATOM     13  O   UNL     1     -58.932 -47.707 -78.195  0.00  0.00    +0.000 OA
ATOM     14  H   UNL     1     -56.414 -43.897 -76.247  0.00  0.00    +0.000 HD
ENDROOT
BRANCH   1  16
ATOM     15  C   UNL     1     -61.372 -45.299 -77.752  0.00  0.00    +0.000 C 
ATOM     16  C   UNL     1     -60.122 -45.136 -78.588  0.00  0.00    +0.000 C 
ATOM     17  O   UNL     1     -60.237 -44.852 -79.779  0.00  0.00    +0.000 OA
ENDBRANCH   1  16
BRANCH   2  18
ATOM     18  S   UNL     1     -58.598 -42.665 -77.267  0.00  0.00    +0.000 S 
ATOM     19  O   UNL     1     -59.598 -42.770 -76.145  0.00  0.00    +0.000 OA
BRANCH  18  20
ATOM     20  C   UNL     1     -57.097 -41.902 -76.536  0.00  0.00    +0.000 C 
BRANCH  20  21
ATOM     21  C   UNL     1     -57.236 -41.621 -75.055  0.00  0.00    +0.000 A 
ATOM     22  C   UNL     1     -56.778 -42.539 -74.095  0.00  0.00    +0.000 A 
ATOM     23  C   UNL     1     -56.896 -42.265 -72.729  0.00  0.00    +0.000 A 
ATOM     24  C   UNL     1     -57.464 -41.068 -72.303  0.00  0.00    +0.000 A 
ATOM     25  C   UNL     1     -57.909 -40.141 -73.243  0.00  0.00    +0.000 A 
ATOM     26  C   UNL     1     -57.795 -40.414 -74.609  0.00  0.00    +0.000 A 
ENDBRANCH  20  21
ENDBRANCH  18  20
ENDBRANCH   2  18
TORSDOF 4
