REMARK VINA RESULT:    -5.252      6.009      7.562
REMARK INTER + INTRA:          -7.470
REMARK INTER:                  -6.601
REMARK INTRA:                  -0.869
REMARK UNBOUND:                -0.684
REMARK  Name = 
REMARK  8 active torsions:
REMARK  status: ('A' for Active; 'I' for Inactive)
REMARK    1  A    between atoms: C_1  and  C_2
REMARK    2  A    between atoms: C_4  and  C_5
REMARK    3  A    between atoms: C_5  and  S_6
REMARK    4  A    between atoms: S_6  and  C_8
REMARK    5  A    between atoms: C_20  and  C_21
REMARK    6  A    between atoms: C_21  and  C_23
REMARK    7  A    between atoms: C_23  and  C_24
REMARK    8  A    between atoms: C_23  and  C_25
REMARK                            x       y       z     vdW  Elec       q    Type
REMARK                         _______ _______ _______ _____ _____    ______ ____
ROOT
ATOM      1  C   UNL     1     -58.541 -37.811 -62.172  0.00  0.00    +0.000 A 
ATOM      2  N   UNL     1     -57.441 -37.000 -62.436  0.00  0.00    +0.000 N 
ATOM      3  C   UNL     1     -57.478 -35.610 -62.215  0.00  0.00    +0.000 A 
ATOM      4  C   UNL     1     -56.306 -34.843 -62.069  0.00  0.00    +0.000 A 
ATOM      5 BR   UNL     1     -54.601 -35.670 -62.000  0.00  0.00    +0.000 Br
ATOM      6  C   UNL     1     -56.369 -33.454 -61.928  0.00  0.00    +0.000 A 
ATOM      7  C   UNL     1     -57.604 -32.811 -61.926  0.00  0.00    +0.000 A 
ATOM      8  C   UNL     1     -58.787 -33.559 -62.063  0.00  0.00    +0.000 A 
ATOM      9 CL   UNL     1     -60.259 -32.661 -61.974  0.00  0.00    +0.000 Cl
ATOM     10  C   UNL     1     -58.723 -34.960 -62.212  0.00  0.00    +0.000 A 
ATOM     11  C   UNL     1     -59.910 -35.835 -62.396  0.00  0.00    +0.000 A 
ATOM     12  O   UNL     1     -60.951 -35.371 -62.852  0.00  0.00    +0.000 OA
ATOM     13  C   UNL     1     -59.791 -37.311 -62.028  0.00  0.00    +0.000 A 
ATOM     14  H   UNL     1     -56.535 -37.460 -62.272  0.00  0.00    +0.000 HD
ENDROOT
BRANCH   1  15
ATOM     15  S   UNL     1     -58.035 -39.540 -61.839  0.00  0.00    +0.000 S 
ATOM     16  O   UNL     1     -57.193 -39.436 -60.596  0.00  0.00    +0.000 OA
BRANCH  15  17
ATOM     17  C   UNL     1     -56.943 -39.937 -63.246  0.00  0.00    +0.000 C 
BRANCH  17  21
ATOM     18  C   UNL     1     -57.849 -43.742 -66.637  0.00  0.00    +0.000 C 
ATOM     19  C   UNL     1     -57.787 -42.681 -65.608  0.00  0.00    +0.000 A 
ATOM     20  C   UNL     1     -56.790 -41.890 -65.083  0.00  0.00    +0.000 A 
ATOM     21  C   UNL     1     -57.444 -41.050 -64.136  0.00  0.00    +0.000 A 
ATOM     22  N   UNL     1     -58.754 -41.347 -64.092  0.00  0.00    +0.000 NA
ATOM     23  O   UNL     1     -58.962 -42.358 -65.011  0.00  0.00    +0.000 OA
ENDBRANCH  17  21
ENDBRANCH  15  17
ENDBRANCH   1  15
BRANCH  13  24
ATOM     24  C   UNL     1     -61.047 -37.990 -61.528  0.00  0.00    +0.000 C 
ATOM     25  O   UNL     1     -61.678 -38.746 -62.265  0.00  0.00    +0.000 OA
BRANCH  24  26
ATOM     26  C   UNL     1     -61.580 -37.691 -60.126  0.00  0.00    +0.000 C 
ATOM     27  C   UNL     1     -60.482 -37.169 -59.202  0.00  0.00    +0.000 C 
ATOM     28  C   UNL     1     -62.757 -36.713 -60.157  0.00  0.00    +0.000 C 
ENDBRANCH  24  26
ENDBRANCH  13  24
TORSDOF 5
