REMARK VINA RESULT:    -4.721     12.609     13.834
REMARK INTER + INTRA:          -6.675
REMARK INTER:                  -5.982
REMARK INTRA:                  -0.693
REMARK UNBOUND:                -0.850
REMARK  Name = 
REMARK  6 active torsions:
REMARK  status: ('A' for Active; 'I' for Inactive)
REMARK    1  A    between atoms: C_1  and  C_2
REMARK    2  A    between atoms: C_2  and  C_4
REMARK    3  A    between atoms: C_5  and  S_6
REMARK    4  A    between atoms: S_6  and  C_8
REMARK    5  A    between atoms: C_8  and  C_9
REMARK    6  A    between atoms: C_11  and  C_12
REMARK                            x       y       z     vdW  Elec       q    Type
REMARK                         _______ _______ _______ _____ _____    ______ ____
ROOT
ATOM      1  C   UNL     1     -66.418 -41.329 -68.222  0.00  0.00    +0.000 A 
ATOM      2  C   UNL     1     -66.159 -41.789 -69.467  0.00  0.00    +0.000 A 
ATOM      3  N   UNL     1     -64.886 -42.056 -69.924  0.00  0.00    +0.000 N 
ATOM      4  C   UNL     1     -63.730 -41.829 -69.160  0.00  0.00    +0.000 A 
ATOM      5  C   UNL     1     -62.464 -42.212 -69.631  0.00  0.00    +0.000 A 
ATOM      6 BR   UNL     1     -62.259 -42.995 -71.354  0.00  0.00    +0.000 Br
ATOM      7  C   UNL     1     -61.322 -42.042 -68.854  0.00  0.00    +0.000 A 
ATOM      8  C   UNL     1     -61.436 -41.488 -67.582  0.00  0.00    +0.000 A 
ATOM      9  C   UNL     1     -62.689 -41.122 -67.076  0.00  0.00    +0.000 A 
ATOM     10 CL   UNL     1     -62.675 -40.460 -65.478  0.00  0.00    +0.000 Cl
ATOM     11  C   UNL     1     -63.847 -41.318 -67.855  0.00  0.00    +0.000 A 
ATOM     12  C   UNL     1     -65.215 -40.980 -67.384  0.00  0.00    +0.000 A 
ATOM     13  O   UNL     1     -65.379 -40.372 -66.330  0.00  0.00    +0.000 OA
ATOM     14  H   UNL     1     -64.761 -42.083 -70.936  0.00  0.00    +0.000 HD
ENDROOT
BRANCH   1  16
ATOM     15  C   UNL     1     -68.456 -42.283 -66.940  0.00  0.00    +0.000 C 
ATOM     16  C   UNL     1     -67.790 -41.121 -67.647  0.00  0.00    +0.000 C 
ATOM     17  O   UNL     1     -68.395 -40.057 -67.771  0.00  0.00    +0.000 OA
ENDBRANCH   1  16
BRANCH   2  18
ATOM     18  S   UNL     1     -67.489 -41.953 -70.703  0.00  0.00    +0.000 S 
ATOM     19  O   UNL     1     -67.594 -40.572 -71.294  0.00  0.00    +0.000 OA
BRANCH  18  20
ATOM     20  C   UNL     1     -66.614 -42.963 -71.941  0.00  0.00    +0.000 C 
BRANCH  20  21
ATOM     21  C   UNL     1     -67.555 -43.724 -72.814  0.00  0.00    +0.000 A 
ATOM     22  C   UNL     1     -67.353 -44.215 -74.131  0.00  0.00    +0.000 A 
ATOM     23  C   UNL     1     -68.496 -44.919 -74.418  0.00  0.00    +0.000 A 
ATOM     24  C   UNL     1     -68.964 -45.704 -75.575  0.00  0.00    +0.000 C 
ATOM     25  O   UNL     1     -69.339 -44.850 -73.353  0.00  0.00    +0.000 OA
ATOM     26  N   UNL     1     -68.751 -44.107 -72.343  0.00  0.00    +0.000 NA
ENDBRANCH  20  21
ENDBRANCH  18  20
ENDBRANCH   2  18
TORSDOF 4
