REMARK VINA RESULT:    -5.312     15.491     16.308
REMARK INTER + INTRA:          -7.314
REMARK INTER:                  -6.605
REMARK INTRA:                  -0.710
REMARK UNBOUND:                -0.760
REMARK  Name = 
REMARK  6 active torsions:
REMARK  status: ('A' for Active; 'I' for Inactive)
REMARK    1  A    between atoms: C_1  and  C_2
REMARK    2  A    between atoms: C_2  and  C_4
REMARK    3  A    between atoms: C_5  and  S_6
REMARK    4  A    between atoms: S_6  and  C_8
REMARK    5  A    between atoms: C_8  and  C_9
REMARK    6  A    between atoms: C_11  and  C_12
REMARK                            x       y       z     vdW  Elec       q    Type
REMARK                         _______ _______ _______ _____ _____    ______ ____
ROOT
ATOM      1  C   UNL     1     -56.514 -42.075 -80.977  0.00  0.00    +0.000 A 
ATOM      2  C   UNL     1     -56.248 -41.766 -79.685  0.00  0.00    +0.000 A 
ATOM      3  N   UNL     1     -54.970 -41.729 -79.165  0.00  0.00    +0.000 N 
ATOM      4  C   UNL     1     -53.832 -42.092 -79.901  0.00  0.00    +0.000 A 
ATOM      5  C   UNL     1     -52.545 -41.973 -79.344  0.00  0.00    +0.000 A 
ATOM      6 BR   UNL     1     -52.304 -41.359 -77.562  0.00  0.00    +0.000 Br
ATOM      7  C   UNL     1     -51.408 -42.283 -80.087  0.00  0.00    +0.000 A 
ATOM      8  C   UNL     1     -51.545 -42.725 -81.400  0.00  0.00    +0.000 A 
ATOM      9  C   UNL     1     -52.814 -42.829 -81.984  0.00  0.00    +0.000 A 
ATOM     10 CL   UNL     1     -52.822 -43.399 -83.618  0.00  0.00    +0.000 Cl
ATOM     11  C   UNL     1     -53.961 -42.481 -81.246  0.00  0.00    +0.000 A 
ATOM     12  C   UNL     1     -55.336 -42.513 -81.810  0.00  0.00    +0.000 A 
ATOM     13  O   UNL     1     -55.528 -42.932 -82.944  0.00  0.00    +0.000 OA
ATOM     14  H   UNL     1     -54.896 -41.821 -78.152  0.00  0.00    +0.000 HD
ENDROOT
BRANCH   1  16
ATOM     15  C   UNL     1     -58.705 -43.309 -81.603  0.00  0.00    +0.000 C 
ATOM     16  C   UNL     1     -57.879 -42.043 -81.606  0.00  0.00    +0.000 C 
ATOM     17  O   UNL     1     -58.323 -41.028 -82.149  0.00  0.00    +0.000 OA
ENDBRANCH   1  16
BRANCH   2  18
ATOM     18  S   UNL     1     -57.593 -41.502 -78.482  0.00  0.00    +0.000 S 
ATOM     19  O   UNL     1     -57.662 -42.810 -77.742  0.00  0.00    +0.000 OA
BRANCH  18  20
ATOM     20  C   UNL     1     -56.750 -40.332 -77.357  0.00  0.00    +0.000 C 
BRANCH  20  21
ATOM     21  C   UNL     1     -56.769 -40.808 -75.945  0.00  0.00    +0.000 A 
ATOM     22  C   UNL     1     -57.770 -40.628 -74.957  0.00  0.00    +0.000 A 
ATOM     23  C   UNL     1     -57.322 -41.346 -73.875  0.00  0.00    +0.000 A 
ATOM     24  C   UNL     1     -57.848 -41.619 -72.525  0.00  0.00    +0.000 C 
ATOM     25  O   UNL     1     -56.127 -41.917 -74.187  0.00  0.00    +0.000 OA
ATOM     26  N   UNL     1     -55.780 -41.587 -75.485  0.00  0.00    +0.000 NA
ENDBRANCH  20  21
ENDBRANCH  18  20
ENDBRANCH   2  18
TORSDOF 4
