REMARK VINA RESULT:    -5.226     10.309     12.707
REMARK INTER + INTRA:          -7.664
REMARK INTER:                  -6.536
REMARK INTRA:                  -1.127
REMARK UNBOUND:                -0.910
REMARK  Name = 
REMARK  6 active torsions:
REMARK  status: ('A' for Active; 'I' for Inactive)
REMARK    1  A    between atoms: C_1  and  C_2
REMARK    2  A    between atoms: C_4  and  C_5
REMARK    3  A    between atoms: C_5  and  S_6
REMARK    4  A    between atoms: S_6  and  C_8
REMARK    5  A    between atoms: C_20  and  C_21
REMARK    6  A    between atoms: C_21  and  C_23
REMARK                            x       y       z     vdW  Elec       q    Type
REMARK                         _______ _______ _______ _____ _____    ______ ____
ROOT
ATOM      1  C   UNL     1     -66.226 -42.731 -69.355  0.00  0.00    +0.000 A 
ATOM      2  N   UNL     1     -65.163 -42.509 -68.459  0.00  0.00    +0.000 N 
ATOM      3  C   UNL     1     -63.847 -42.272 -68.942  0.00  0.00    +0.000 A 
ATOM      4  C   UNL     1     -62.840 -41.670 -68.163  0.00  0.00    +0.000 A 
ATOM      5 BR   UNL     1     -63.224 -40.958 -66.447  0.00  0.00    +0.000 Br
ATOM      6  C   UNL     1     -61.527 -41.555 -68.640  0.00  0.00    +0.000 A 
ATOM      7  C   UNL     1     -61.212 -42.021 -69.921  0.00  0.00    +0.000 A 
ATOM      8  C   UNL     1     -62.193 -42.620 -70.712  0.00  0.00    +0.000 A 
ATOM      9 CL   UNL     1     -61.721 -43.095 -72.303  0.00  0.00    +0.000 Cl
ATOM     10  C   UNL     1     -63.496 -42.761 -70.210  0.00  0.00    +0.000 A 
ATOM     11  C   UNL     1     -64.576 -43.455 -70.937  0.00  0.00    +0.000 A 
ATOM     12  O   UNL     1     -64.345 -44.379 -71.707  0.00  0.00    +0.000 OA
ATOM     13  C   UNL     1     -65.991 -43.052 -70.647  0.00  0.00    +0.000 A 
ATOM     14  H   UNL     1     -65.434 -41.897 -67.677  0.00  0.00    +0.000 HD
ENDROOT
BRANCH   1  15
ATOM     15  S   UNL     1     -67.809 -42.114 -68.725  0.00  0.00    +0.000 S 
ATOM     16  O   UNL     1     -67.437 -41.331 -67.495  0.00  0.00    +0.000 OA
BRANCH  15  17
ATOM     17  C   UNL     1     -68.835 -43.515 -68.187  0.00  0.00    +0.000 C 
BRANCH  17  21
ATOM     18  C   UNL     1     -70.598 -47.388 -71.035  0.00  0.00    +0.000 C 
ATOM     19  C   UNL     1     -70.238 -46.153 -70.313  0.00  0.00    +0.000 A 
ATOM     20  C   UNL     1     -69.368 -45.849 -69.293  0.00  0.00    +0.000 A 
ATOM     21  C   UNL     1     -69.457 -44.446 -69.156  0.00  0.00    +0.000 A 
ATOM     22  N   UNL     1     -70.380 -43.948 -69.998  0.00  0.00    +0.000 NA
ATOM     23  O   UNL     1     -70.863 -45.020 -70.720  0.00  0.00    +0.000 OA
ENDBRANCH  17  21
ENDBRANCH  15  17
ENDBRANCH   1  15
BRANCH  13  24
ATOM     24  C   UNL     1     -66.837 -42.912 -71.867  0.00  0.00    +0.000 C 
ATOM     25  O   UNL     1     -67.695 -43.738 -72.123  0.00  0.00    +0.000 OA
BRANCH  24  26
ATOM     26  C   UNL     1     -66.648 -41.732 -72.732  0.00  0.00    +0.000 C 
ATOM     27  C   UNL     1     -66.152 -40.443 -72.129  0.00  0.00    +0.000 C 
ATOM     28  C   UNL     1     -67.561 -40.534 -72.631  0.00  0.00    +0.000 C 
ENDBRANCH  24  26
ENDBRANCH  13  24
TORSDOF 5
