REMARK VINA RESULT:    -7.470      0.000      0.000
REMARK INTER + INTRA:         -10.561
REMARK INTER:                  -9.653
REMARK INTRA:                  -0.908
REMARK UNBOUND:                -0.908
REMARK  Name = 
REMARK  6 active torsions:
REMARK  status: ('A' for Active; 'I' for Inactive)
REMARK    1  A    between atoms: C_1  and  C_2
REMARK    2  A    between atoms: C_4  and  C_5
REMARK    3  A    between atoms: C_5  and  S_6
REMARK    4  A    between atoms: S_6  and  C_8
REMARK    5  A    between atoms: C_20  and  C_21
REMARK    6  A    between atoms: C_21  and  C_23
REMARK                            x       y       z     vdW  Elec       q    Type
REMARK                         _______ _______ _______ _____ _____    ______ ____
ROOT
ATOM      1  C   UNL     1     -55.759 -42.807 -76.688  0.00  0.00    +0.000 A 
ATOM      2  N   UNL     1     -54.438 -43.173 -76.366  0.00  0.00    +0.000 N 
ATOM      3  C   UNL     1     -53.421 -42.185 -76.255  0.00  0.00    +0.000 A 
ATOM      4  C   UNL     1     -52.208 -42.405 -75.574  0.00  0.00    +0.000 A 
ATOM      5 BR   UNL     1     -51.915 -43.998 -74.587  0.00  0.00    +0.000 Br
ATOM      6  C   UNL     1     -51.187 -41.444 -75.583  0.00  0.00    +0.000 A 
ATOM      7  C   UNL     1     -51.382 -40.233 -76.257  0.00  0.00    +0.000 A 
ATOM      8  C   UNL     1     -52.576 -39.992 -76.937  0.00  0.00    +0.000 A 
ATOM      9 CL   UNL     1     -52.746 -38.440 -77.674  0.00  0.00    +0.000 Cl
ATOM     10  C   UNL     1     -53.576 -40.976 -76.951  0.00  0.00    +0.000 A 
ATOM     11  C   UNL     1     -54.834 -40.846 -77.712  0.00  0.00    +0.000 A 
ATOM     12  O   UNL     1     -54.894 -40.204 -78.753  0.00  0.00    +0.000 OA
ATOM     13  C   UNL     1     -56.036 -41.594 -77.217  0.00  0.00    +0.000 A 
ATOM     14  H   UNL     1     -54.401 -43.890 -75.628  0.00  0.00    +0.000 HD
ENDROOT
BRANCH   1  15
ATOM     15  S   UNL     1     -56.990 -43.896 -75.924  0.00  0.00    +0.000 S 
ATOM     16  O   UNL     1     -57.755 -44.463 -77.088  0.00  0.00    +0.000 OA
BRANCH  15  17
ATOM     17  C   UNL     1     -58.152 -42.902 -74.942  0.00  0.00    +0.000 C 
BRANCH  17  21
ATOM     18  C   UNL     1     -55.921 -40.921 -70.780  0.00  0.00    +0.000 C 
ATOM     19  C   UNL     1     -56.699 -41.328 -71.965  0.00  0.00    +0.000 A 
ATOM     20  C   UNL     1     -56.572 -42.316 -72.913  0.00  0.00    +0.000 A 
ATOM     21  C   UNL     1     -57.729 -42.191 -73.713  0.00  0.00    +0.000 A 
ATOM     22  N   UNL     1     -58.470 -41.144 -73.311  0.00  0.00    +0.000 NA
ATOM     23  O   UNL     1     -57.822 -40.609 -72.217  0.00  0.00    +0.000 OA
ENDBRANCH  17  21
ENDBRANCH  15  17
ENDBRANCH   1  15
BRANCH  13  24
ATOM     24  C   UNL     1     -57.293 -40.793 -77.242  0.00  0.00    +0.000 C 
ATOM     25  O   UNL     1     -57.495 -39.933 -76.403  0.00  0.00    +0.000 OA
BRANCH  24  26
ATOM     26  C   UNL     1     -58.264 -41.027 -78.328  0.00  0.00    +0.000 C 
ATOM     27  C   UNL     1     -59.562 -40.262 -78.338  0.00  0.00    +0.000 C 
ATOM     28  C   UNL     1     -59.572 -41.736 -78.068  0.00  0.00    +0.000 C 
ENDBRANCH  24  26
ENDBRANCH  13  24
TORSDOF 5
