REMARK VINA RESULT:    -5.704     12.519     15.334
REMARK INTER + INTRA:          -8.245
REMARK INTER:                  -7.490
REMARK INTRA:                  -0.755
REMARK UNBOUND:                -0.873
REMARK  Name = 
REMARK  6 active torsions:
REMARK  status: ('A' for Active; 'I' for Inactive)
REMARK    1  A    between atoms: C_1  and  C_2
REMARK    2  A    between atoms: C_4  and  C_5
REMARK    3  A    between atoms: C_5  and  S_6
REMARK    4  A    between atoms: S_6  and  C_8
REMARK    5  A    between atoms: C_20  and  C_21
REMARK    6  A    between atoms: C_21  and  C_23
REMARK                            x       y       z     vdW  Elec       q    Type
REMARK                         _______ _______ _______ _____ _____    ______ ____
ROOT
ATOM      1  C   UNL     1     -56.733 -38.492 -62.501  0.00  0.00    +0.000 A 
ATOM      2  N   UNL     1     -56.584 -39.809 -62.979  0.00  0.00    +0.000 N 
ATOM      3  C   UNL     1     -55.355 -40.237 -63.551  0.00  0.00    +0.000 A 
ATOM      4  C   UNL     1     -55.001 -41.592 -63.685  0.00  0.00    +0.000 A 
ATOM      5 BR   UNL     1     -56.078 -42.964 -62.938  0.00  0.00    +0.000 Br
ATOM      6  C   UNL     1     -53.830 -41.973 -64.355  0.00  0.00    +0.000 A 
ATOM      7  C   UNL     1     -52.980 -40.991 -64.877  0.00  0.00    +0.000 A 
ATOM      8  C   UNL     1     -53.309 -39.641 -64.754  0.00  0.00    +0.000 A 
ATOM      9 CL   UNL     1     -52.160 -38.506 -65.367  0.00  0.00    +0.000 Cl
ATOM     10  C   UNL     1     -54.502 -39.274 -64.113  0.00  0.00    +0.000 A 
ATOM     11  C   UNL     1     -54.975 -37.880 -64.012  0.00  0.00    +0.000 A 
ATOM     12  O   UNL     1     -54.711 -37.045 -64.869  0.00  0.00    +0.000 OA
ATOM     13  C   UNL     1     -55.864 -37.521 -62.859  0.00  0.00    +0.000 A 
ATOM     14  H   UNL     1     -57.012 -40.502 -62.349  0.00  0.00    +0.000 HD
ENDROOT
BRANCH   1  15
ATOM     15  S   UNL     1     -57.862 -38.387 -61.088  0.00  0.00    +0.000 S 
ATOM     16  O   UNL     1     -58.435 -36.999 -61.175  0.00  0.00    +0.000 OA
BRANCH  15  17
ATOM     17  C   UNL     1     -56.911 -38.487 -59.543  0.00  0.00    +0.000 C 
BRANCH  17  21
ATOM     18  C   UNL     1     -55.094 -43.205 -58.733  0.00  0.00    +0.000 C 
ATOM     19  C   UNL     1     -55.464 -41.781 -58.834  0.00  0.00    +0.000 A 
ATOM     20  C   UNL     1     -56.372 -41.068 -59.581  0.00  0.00    +0.000 A 
ATOM     21  C   UNL     1     -56.263 -39.744 -59.102  0.00  0.00    +0.000 A 
ATOM     22  N   UNL     1     -55.296 -39.656 -58.172  0.00  0.00    +0.000 NA
ATOM     23  O   UNL     1     -54.801 -40.933 -58.008  0.00  0.00    +0.000 OA
ENDBRANCH  17  21
ENDBRANCH  15  17
ENDBRANCH   1  15
BRANCH  13  24
ATOM     24  C   UNL     1     -55.510 -36.227 -62.209  0.00  0.00    +0.000 C 
ATOM     25  O   UNL     1     -54.882 -36.209 -61.165  0.00  0.00    +0.000 OA
BRANCH  24  26
ATOM     26  C   UNL     1     -55.893 -34.968 -62.876  0.00  0.00    +0.000 C 
ATOM     27  C   UNL     1     -56.061 -33.715 -62.055  0.00  0.00    +0.000 C 
ATOM     28  C   UNL     1     -57.261 -34.361 -62.678  0.00  0.00    +0.000 C 
ENDBRANCH  24  26
ENDBRANCH  13  24
TORSDOF 5
