REMARK VINA RESULT:    -5.426     21.526     24.959
REMARK INTER + INTRA:          -7.875
REMARK INTER:                  -6.881
REMARK INTRA:                  -0.994
REMARK UNBOUND:                -0.863
REMARK  Name = 
REMARK  6 active torsions:
REMARK  status: ('A' for Active; 'I' for Inactive)
REMARK    1  A    between atoms: C_1  and  C_2
REMARK    2  A    between atoms: C_4  and  C_5
REMARK    3  A    between atoms: C_5  and  S_6
REMARK    4  A    between atoms: S_6  and  C_8
REMARK    5  A    between atoms: C_20  and  C_21
REMARK    6  A    between atoms: C_21  and  C_23
REMARK                            x       y       z     vdW  Elec       q    Type
REMARK                         _______ _______ _______ _____ _____    ______ ____
ROOT
ATOM      1  C   UNL     1     -65.859 -47.731 -54.482  0.00  0.00    +0.000 A 
ATOM      2  N   UNL     1     -66.977 -48.585 -54.423  0.00  0.00    +0.000 N 
ATOM      3  C   UNL     1     -67.820 -48.753 -55.556  0.00  0.00    +0.000 A 
ATOM      4  C   UNL     1     -68.693 -49.846 -55.708  0.00  0.00    +0.000 A 
ATOM      5 BR   UNL     1     -68.677 -51.290 -54.478  0.00  0.00    +0.000 Br
ATOM      6  C   UNL     1     -69.586 -49.916 -56.786  0.00  0.00    +0.000 A 
ATOM      7  C   UNL     1     -69.595 -48.897 -57.745  0.00  0.00    +0.000 A 
ATOM      8  C   UNL     1     -68.738 -47.804 -57.617  0.00  0.00    +0.000 A 
ATOM      9 CL   UNL     1     -68.775 -46.638 -58.889  0.00  0.00    +0.000 Cl
ATOM     10  C   UNL     1     -67.874 -47.728 -56.514  0.00  0.00    +0.000 A 
ATOM     11  C   UNL     1     -66.994 -46.573 -56.248  0.00  0.00    +0.000 A 
ATOM     12  O   UNL     1     -67.299 -45.438 -56.594  0.00  0.00    +0.000 OA
ATOM     13  C   UNL     1     -65.737 -46.811 -55.465  0.00  0.00    +0.000 A 
ATOM     14  H   UNL     1     -66.770 -49.463 -53.927  0.00  0.00    +0.000 HD
ENDROOT
BRANCH   1  15
ATOM     15  S   UNL     1     -64.492 -48.298 -53.436  0.00  0.00    +0.000 S 
ATOM     16  O   UNL     1     -63.834 -49.383 -54.244  0.00  0.00    +0.000 OA
BRANCH  15  17
ATOM     17  C   UNL     1     -65.160 -49.070 -51.932  0.00  0.00    +0.000 C 
BRANCH  17  21
ATOM     18  C   UNL     1     -66.043 -54.108 -52.167  0.00  0.00    +0.000 C 
ATOM     19  C   UNL     1     -65.968 -52.646 -51.985  0.00  0.00    +0.000 A 
ATOM     20  C   UNL     1     -65.047 -51.678 -52.307  0.00  0.00    +0.000 A 
ATOM     21  C   UNL     1     -65.659 -50.464 -51.923  0.00  0.00    +0.000 A 
ATOM     22  N   UNL     1     -66.848 -50.699 -51.341  0.00  0.00    +0.000 NA
ATOM     23  O   UNL     1     -67.037 -52.065 -51.384  0.00  0.00    +0.000 OA
ENDBRANCH  17  21
ENDBRANCH  15  17
ENDBRANCH   1  15
BRANCH  13  24
ATOM     24  C   UNL     1     -64.542 -46.118 -56.024  0.00  0.00    +0.000 C 
ATOM     25  O   UNL     1     -64.132 -45.087 -55.521  0.00  0.00    +0.000 OA
BRANCH  24  26
ATOM     26  C   UNL     1     -63.837 -46.728 -57.167  0.00  0.00    +0.000 C 
ATOM     27  C   UNL     1     -62.889 -45.889 -57.986  0.00  0.00    +0.000 C 
ATOM     28  C   UNL     1     -64.180 -46.352 -58.589  0.00  0.00    +0.000 C 
ENDBRANCH  24  26
ENDBRANCH  13  24
TORSDOF 5
