REMARK VINA RESULT:    -5.572      3.854      6.264
REMARK INTER + INTRA:          -8.051
REMARK INTER:                  -6.863
REMARK INTRA:                  -1.188
REMARK UNBOUND:                -0.850
REMARK  Name = 
REMARK  6 active torsions:
REMARK  status: ('A' for Active; 'I' for Inactive)
REMARK    1  A    between atoms: C_1  and  C_2
REMARK    2  A    between atoms: C_4  and  C_5
REMARK    3  A    between atoms: C_5  and  S_6
REMARK    4  A    between atoms: S_6  and  C_8
REMARK    5  A    between atoms: C_20  and  C_21
REMARK    6  A    between atoms: C_21  and  C_23
REMARK                            x       y       z     vdW  Elec       q    Type
REMARK                         _______ _______ _______ _____ _____    ______ ____
ROOT
ATOM      1  C   UNL     1     -57.311 -43.928 -76.521  0.00  0.00    +0.000 A 
ATOM      2  N   UNL     1     -58.546 -43.757 -77.175  0.00  0.00    +0.000 N 
ATOM      3  C   UNL     1     -59.062 -44.774 -78.024  0.00  0.00    +0.000 A 
ATOM      4  C   UNL     1     -60.419 -44.855 -78.388  0.00  0.00    +0.000 A 
ATOM      5 BR   UNL     1     -61.710 -43.698 -77.618  0.00  0.00    +0.000 Br
ATOM      6  C   UNL     1     -60.866 -45.808 -79.314  0.00  0.00    +0.000 A 
ATOM      7  C   UNL     1     -59.955 -46.715 -79.868  0.00  0.00    +0.000 A 
ATOM      8  C   UNL     1     -58.606 -46.656 -79.521  0.00  0.00    +0.000 A 
ATOM      9 CL   UNL     1     -57.578 -47.864 -80.203  0.00  0.00    +0.000 Cl
ATOM     10  C   UNL     1     -58.165 -45.674 -78.620  0.00  0.00    +0.000 A 
ATOM     11  C   UNL     1     -56.747 -45.480 -78.259  0.00  0.00    +0.000 A 
ATOM     12  O   UNL     1     -55.842 -45.736 -79.043  0.00  0.00    +0.000 OA
ATOM     13  C   UNL     1     -56.438 -44.880 -76.920  0.00  0.00    +0.000 A 
ATOM     14  H   UNL     1     -59.255 -43.329 -76.563  0.00  0.00    +0.000 HD
ENDROOT
BRANCH   1  15
ATOM     15  S   UNL     1     -57.253 -43.095 -74.913  0.00  0.00    +0.000 S 
ATOM     16  O   UNL     1     -58.469 -42.209 -74.912  0.00  0.00    +0.000 OA
BRANCH  15  17
ATOM     17  C   UNL     1     -55.794 -42.015 -74.841  0.00  0.00    +0.000 C 
BRANCH  17  21
ATOM     18  C   UNL     1     -54.373 -39.633 -79.145  0.00  0.00    +0.000 C 
ATOM     19  C   UNL     1     -54.577 -40.372 -77.885  0.00  0.00    +0.000 A 
ATOM     20  C   UNL     1     -55.646 -40.574 -77.045  0.00  0.00    +0.000 A 
ATOM     21  C   UNL     1     -55.163 -41.469 -76.064  0.00  0.00    +0.000 A 
ATOM     22  N   UNL     1     -53.860 -41.731 -76.267  0.00  0.00    +0.000 NA
ATOM     23  O   UNL     1     -53.499 -41.044 -77.407  0.00  0.00    +0.000 OA
ENDBRANCH  17  21
ENDBRANCH  15  17
ENDBRANCH   1  15
BRANCH  13  24
ATOM     24  C   UNL     1     -55.327 -45.563 -76.199  0.00  0.00    +0.000 C 
ATOM     25  O   UNL     1     -54.239 -45.024 -76.084  0.00  0.00    +0.000 OA
BRANCH  24  26
ATOM     26  C   UNL     1     -55.580 -46.880 -75.586  0.00  0.00    +0.000 C 
ATOM     27  C   UNL     1     -54.416 -47.773 -75.241  0.00  0.00    +0.000 C 
ATOM     28  C   UNL     1     -55.343 -48.159 -76.353  0.00  0.00    +0.000 C 
ENDBRANCH  24  26
ENDBRANCH  13  24
TORSDOF 5
