REMARK VINA RESULT:    -5.506     23.205     26.287
REMARK INTER + INTRA:          -7.836
REMARK INTER:                  -7.055
REMARK INTRA:                  -0.780
REMARK UNBOUND:                -1.042
REMARK  Name = 
REMARK  6 active torsions:
REMARK  status: ('A' for Active; 'I' for Inactive)
REMARK    1  A    between atoms: C_1  and  C_2
REMARK    2  A    between atoms: C_2  and  C_4
REMARK    3  A    between atoms: C_5  and  S_6
REMARK    4  A    between atoms: S_6  and  C_8
REMARK    5  A    between atoms: C_8  and  C_9
REMARK    6  A    between atoms: C_11  and  C_12
REMARK                            x       y       z     vdW  Elec       q    Type
REMARK                         _______ _______ _______ _____ _____    ______ ____
ROOT
ATOM      1  C   UNL     1     -69.098 -51.047 -55.302  0.00  0.00    +0.000 A 
ATOM      2  C   UNL     1     -68.228 -50.024 -55.464  0.00  0.00    +0.000 A 
ATOM      3  N   UNL     1     -67.016 -49.947 -54.807  0.00  0.00    +0.000 N 
ATOM      4  C   UNL     1     -66.618 -50.870 -53.831  0.00  0.00    +0.000 A 
ATOM      5  C   UNL     1     -65.364 -50.754 -53.196  0.00  0.00    +0.000 A 
ATOM      6 BR   UNL     1     -64.208 -49.296 -53.588  0.00  0.00    +0.000 Br
ATOM      7  C   UNL     1     -64.936 -51.698 -52.271  0.00  0.00    +0.000 A 
ATOM      8  C   UNL     1     -65.752 -52.785 -51.968  0.00  0.00    +0.000 A 
ATOM      9  C   UNL     1     -66.994 -52.936 -52.598  0.00  0.00    +0.000 A 
ATOM     10 CL   UNL     1     -67.900 -54.325 -52.110  0.00  0.00    +0.000 Cl
ATOM     11  C   UNL     1     -67.422 -51.987 -53.550  0.00  0.00    +0.000 A 
ATOM     12  C   UNL     1     -68.721 -52.081 -54.274  0.00  0.00    +0.000 A 
ATOM     13  O   UNL     1     -69.506 -52.982 -54.005  0.00  0.00    +0.000 OA
ATOM     14  H   UNL     1     -66.604 -49.016 -54.737  0.00  0.00    +0.000 HD
ENDROOT
BRANCH   1  16
ATOM     15  C   UNL     1     -70.424 -51.961 -57.344  0.00  0.00    +0.000 C 
ATOM     16  C   UNL     1     -70.402 -51.188 -56.045  0.00  0.00    +0.000 C 
ATOM     17  O   UNL     1     -71.440 -50.672 -55.636  0.00  0.00    +0.000 OA
ENDBRANCH   1  16
BRANCH   2  18
ATOM     18  S   UNL     1     -68.656 -48.567 -56.474  0.00  0.00    +0.000 S 
ATOM     19  O   UNL     1     -69.680 -47.847 -55.635  0.00  0.00    +0.000 OA
BRANCH  18  20
ATOM     20  C   UNL     1     -67.103 -47.620 -56.295  0.00  0.00    +0.000 C 
BRANCH  20  21
ATOM     21  C   UNL     1     -66.332 -47.531 -57.570  0.00  0.00    +0.000 A 
ATOM     22  C   UNL     1     -65.121 -46.850 -57.862  0.00  0.00    +0.000 A 
ATOM     23  C   UNL     1     -64.862 -47.147 -59.176  0.00  0.00    +0.000 A 
ATOM     24  C   UNL     1     -63.809 -46.764 -60.135  0.00  0.00    +0.000 C 
ATOM     25  O   UNL     1     -65.830 -47.981 -59.641  0.00  0.00    +0.000 OA
ATOM     26  N   UNL     1     -66.748 -48.230 -58.637  0.00  0.00    +0.000 NA
ENDBRANCH  20  21
ENDBRANCH  18  20
ENDBRANCH   2  18
TORSDOF 4
