REMARK VINA RESULT:    -5.545     21.659     23.261
REMARK INTER + INTRA:          -7.489
REMARK INTER:                  -6.910
REMARK INTRA:                  -0.579
REMARK UNBOUND:                -0.647
REMARK  Name = 
REMARK  6 active torsions:
REMARK  status: ('A' for Active; 'I' for Inactive)
REMARK    1  A    between atoms: C_1  and  C_2
REMARK    2  A    between atoms: C_2  and  C_4
REMARK    3  A    between atoms: C_5  and  S_6
REMARK    4  A    between atoms: S_6  and  C_8
REMARK    5  A    between atoms: C_8  and  C_9
REMARK    6  A    between atoms: C_11  and  C_12
REMARK                            x       y       z     vdW  Elec       q    Type
REMARK                         _______ _______ _______ _____ _____    ______ ____
ROOT
ATOM      1  C   UNL     1     -49.749 -25.456 -62.075  0.00  0.00    +0.000 A 
ATOM      2  C   UNL     1     -48.556 -25.844 -62.627  0.00  0.00    +0.000 A 
ATOM      3  N   UNL     1     -48.027 -25.191 -63.710  0.00  0.00    +0.000 N 
ATOM      4  C   UNL     1     -48.705 -24.211 -64.443  0.00  0.00    +0.000 A 
ATOM      5  C   UNL     1     -48.175 -23.735 -65.661  0.00  0.00    +0.000 A 
ATOM      6 BR   UNL     1     -46.557 -24.435 -66.376  0.00  0.00    +0.000 Br
ATOM      7  C   UNL     1     -48.830 -22.742 -66.380  0.00  0.00    +0.000 A 
ATOM      8  C   UNL     1     -50.030 -22.227 -65.897  0.00  0.00    +0.000 A 
ATOM      9  C   UNL     1     -50.580 -22.704 -64.701  0.00  0.00    +0.000 A 
ATOM     10 CL   UNL     1     -52.095 -22.009 -64.244  0.00  0.00    +0.000 Cl
ATOM     11  C   UNL     1     -49.906 -23.698 -63.969  0.00  0.00    +0.000 A 
ATOM     12  C   UNL     1     -50.368 -24.213 -62.665  0.00  0.00    +0.000 A 
ATOM     13  O   UNL     1     -51.230 -23.596 -62.049  0.00  0.00    +0.000 OA
ATOM     14  H   UNL     1     -47.153 -25.553 -64.093  0.00  0.00    +0.000 HD
ENDROOT
BRANCH   1  16
ATOM     15  C   UNL     1     -51.656 -27.072 -61.308  0.00  0.00    +0.000 C 
ATOM     16  C   UNL     1     -50.503 -26.130 -60.958  0.00  0.00    +0.000 C 
ATOM     17  O   UNL     1     -50.202 -25.936 -59.800  0.00  0.00    +0.000 OA
ENDBRANCH   1  16
BRANCH   2  18
ATOM     18  S   UNL     1     -47.622 -27.355 -62.137  0.00  0.00    +0.000 S 
ATOM     19  O   UNL     1     -48.635 -28.465 -62.327  0.00  0.00    +0.000 OA
BRANCH  18  20
ATOM     20  C   UNL     1     -46.459 -27.533 -63.560  0.00  0.00    +0.000 C 
BRANCH  20  21
ATOM     21  C   UNL     1     -45.581 -28.743 -63.539  0.00  0.00    +0.000 A 
ATOM     22  C   UNL     1     -45.606 -29.901 -62.724  0.00  0.00    +0.000 A 
ATOM     23  C   UNL     1     -44.591 -30.689 -63.222  0.00  0.00    +0.000 A 
ATOM     24  C   UNL     1     -44.069 -32.019 -62.880  0.00  0.00    +0.000 C 
ATOM     25  O   UNL     1     -43.990 -30.050 -64.257  0.00  0.00    +0.000 OA
ATOM     26  N   UNL     1     -44.612 -28.836 -64.466  0.00  0.00    +0.000 NA
ENDBRANCH  20  21
ENDBRANCH  18  20
ENDBRANCH   2  18
TORSDOF 4
