REMARK VINA RESULT:    -5.328     15.923     18.657
REMARK INTER + INTRA:          -7.290
REMARK INTER:                  -6.633
REMARK INTRA:                  -0.657
REMARK UNBOUND:                -0.716
REMARK  Name = 
REMARK  6 active torsions:
REMARK  status: ('A' for Active; 'I' for Inactive)
REMARK    1  A    between atoms: C_1  and  C_2
REMARK    2  A    between atoms: C_2  and  C_4
REMARK    3  A    between atoms: C_5  and  S_6
REMARK    4  A    between atoms: S_6  and  C_8
REMARK    5  A    between atoms: C_8  and  C_9
REMARK    6  A    between atoms: C_11  and  C_12
REMARK                            x       y       z     vdW  Elec       q    Type
REMARK                         _______ _______ _______ _____ _____    ______ ____
ROOT
ATOM      1  C   UNL     1     -57.445 -32.921 -62.058  0.00  0.00    +0.000 A 
ATOM      2  C   UNL     1     -56.867 -32.013 -61.241  0.00  0.00    +0.000 A 
ATOM      3  N   UNL     1     -55.545 -32.078 -60.843  0.00  0.00    +0.000 N 
ATOM      4  C   UNL     1     -54.722 -33.184 -61.120  0.00  0.00    +0.000 A 
ATOM      5  C   UNL     1     -53.400 -33.232 -60.643  0.00  0.00    +0.000 A 
ATOM      6 BR   UNL     1     -52.704 -31.849 -59.540  0.00  0.00    +0.000 Br
ATOM      7  C   UNL     1     -52.561 -34.298 -60.959  0.00  0.00    +0.000 A 
ATOM      8  C   UNL     1     -53.035 -35.326 -61.770  0.00  0.00    +0.000 A 
ATOM      9  C   UNL     1     -54.337 -35.290 -62.275  0.00  0.00    +0.000 A 
ATOM     10 CL   UNL     1     -54.784 -36.643 -63.256  0.00  0.00    +0.000 Cl
ATOM     11  C   UNL     1     -55.184 -34.204 -61.968  0.00  0.00    +0.000 A 
ATOM     12  C   UNL     1     -56.582 -34.083 -62.470  0.00  0.00    +0.000 A 
ATOM     13  O   UNL     1     -57.048 -34.959 -63.192  0.00  0.00    +0.000 OA
ATOM     14  H   UNL     1     -55.326 -31.581 -59.977  0.00  0.00    +0.000 HD
ENDROOT
BRANCH   1  16
ATOM     15  C   UNL     1     -59.208 -32.123 -63.809  0.00  0.00    +0.000 C 
ATOM     16  C   UNL     1     -58.878 -32.858 -62.529  0.00  0.00    +0.000 C 
ATOM     17  O   UNL     1     -59.793 -33.383 -61.892  0.00  0.00    +0.000 OA
ENDBRANCH   1  16
BRANCH   2  18
ATOM     18  S   UNL     1     -57.844 -30.699 -60.439  0.00  0.00    +0.000 S 
ATOM     19  O   UNL     1     -58.142 -31.268 -59.077  0.00  0.00    +0.000 OA
BRANCH  18  20
ATOM     20  C   UNL     1     -56.527 -29.452 -60.188  0.00  0.00    +0.000 C 
BRANCH  20  21
ATOM     21  C   UNL     1     -57.019 -28.252 -59.445  0.00  0.00    +0.000 A 
ATOM     22  C   UNL     1     -57.063 -27.992 -58.050  0.00  0.00    +0.000 A 
ATOM     23  C   UNL     1     -57.617 -26.740 -57.948  0.00  0.00    +0.000 A 
ATOM     24  C   UNL     1     -58.009 -25.871 -56.822  0.00  0.00    +0.000 C 
ATOM     25  O   UNL     1     -57.841 -26.251 -59.195  0.00  0.00    +0.000 OA
ATOM     26  N   UNL     1     -57.462 -27.191 -60.137  0.00  0.00    +0.000 NA
ENDBRANCH  20  21
ENDBRANCH  18  20
ENDBRANCH   2  18
TORSDOF 4
