REMARK VINA RESULT:    -6.361      3.603      4.582
REMARK INTER + INTRA:          -8.980
REMARK INTER:                  -7.800
REMARK INTRA:                  -1.181
REMARK UNBOUND:                -0.760
REMARK  Name = 
REMARK  8 active torsions:
REMARK  status: ('A' for Active; 'I' for Inactive)
REMARK    1  A    between atoms: C_1  and  C_2
REMARK    2  A    between atoms: C_4  and  C_5
REMARK    3  A    between atoms: C_5  and  S_6
REMARK    4  A    between atoms: S_6  and  C_8
REMARK    5  A    between atoms: C_20  and  C_21
REMARK    6  A    between atoms: C_21  and  C_23
REMARK    7  A    between atoms: C_23  and  C_24
REMARK    8  A    between atoms: C_23  and  C_25
REMARK                            x       y       z     vdW  Elec       q    Type
REMARK                         _______ _______ _______ _____ _____    ______ ____
ROOT
ATOM      1  C   UNL     1     -57.150 -40.894 -63.302  0.00  0.00    +0.000 A 
ATOM      2  N   UNL     1     -56.087 -40.325 -63.996  0.00  0.00    +0.000 N 
ATOM      3  C   UNL     1     -55.535 -39.087 -63.614  0.00  0.00    +0.000 A 
ATOM      4  C   UNL     1     -54.241 -38.691 -64.004  0.00  0.00    +0.000 A 
ATOM      5 BR   UNL     1     -53.097 -39.881 -64.938  0.00  0.00    +0.000 Br
ATOM      6  C   UNL     1     -53.747 -37.425 -63.678  0.00  0.00    +0.000 A 
ATOM      7  C   UNL     1     -54.537 -36.538 -62.952  0.00  0.00    +0.000 A 
ATOM      8  C   UNL     1     -55.830 -36.916 -62.546  0.00  0.00    +0.000 A 
ATOM      9 CL   UNL     1     -56.686 -35.760 -61.591  0.00  0.00    +0.000 Cl
ATOM     10  C   UNL     1     -56.331 -38.191 -62.882  0.00  0.00    +0.000 A 
ATOM     11  C   UNL     1     -57.691 -38.672 -62.530  0.00  0.00    +0.000 A 
ATOM     12  O   UNL     1     -58.592 -37.867 -62.314  0.00  0.00    +0.000 OA
ATOM     13  C   UNL     1     -57.939 -40.177 -62.467  0.00  0.00    +0.000 A 
ATOM     14  H   UNL     1     -55.428 -41.012 -64.387  0.00  0.00    +0.000 HD
ENDROOT
BRANCH   1  15
ATOM     15  S   UNL     1     -57.184 -42.716 -63.502  0.00  0.00    +0.000 S 
ATOM     16  O   UNL     1     -55.778 -43.058 -63.913  0.00  0.00    +0.000 OA
BRANCH  15  17
ATOM     17  C   UNL     1     -58.281 -42.959 -64.940  0.00  0.00    +0.000 C 
BRANCH  17  21
ATOM     18  C   UNL     1     -55.940 -43.286 -69.546  0.00  0.00    +0.000 C 
ATOM     19  C   UNL     1     -56.601 -42.987 -68.256  0.00  0.00    +0.000 A 
ATOM     20  C   UNL     1     -57.209 -43.738 -67.276  0.00  0.00    +0.000 A 
ATOM     21  C   UNL     1     -57.605 -42.798 -66.281  0.00  0.00    +0.000 A 
ATOM     22  N   UNL     1     -57.265 -41.556 -66.667  0.00  0.00    +0.000 NA
ATOM     23  O   UNL     1     -56.638 -41.680 -67.892  0.00  0.00    +0.000 OA
ENDBRANCH  17  21
ENDBRANCH  15  17
ENDBRANCH   1  15
BRANCH  13  24
ATOM     24  C   UNL     1     -58.977 -40.654 -61.476  0.00  0.00    +0.000 C 
ATOM     25  O   UNL     1     -58.751 -40.596 -60.268  0.00  0.00    +0.000 OA
BRANCH  24  26
ATOM     26  C   UNL     1     -60.286 -41.272 -61.966  0.00  0.00    +0.000 C 
ATOM     27  C   UNL     1     -61.084 -41.891 -60.821  0.00  0.00    +0.000 C 
ATOM     28  C   UNL     1     -61.147 -40.261 -62.727  0.00  0.00    +0.000 C 
ENDBRANCH  24  26
ENDBRANCH  13  24
TORSDOF 5
