REMARK VINA RESULT:    -6.596      3.668      6.563
REMARK INTER + INTRA:          -9.871
REMARK INTER:                  -9.015
REMARK INTRA:                  -0.856
REMARK UNBOUND:                -1.347
REMARK  Name = 
REMARK  6 active torsions:
REMARK  status: ('A' for Active; 'I' for Inactive)
REMARK    1  A    between atoms: C_1  and  C_2
REMARK    2  A    between atoms: C_2  and  C_4
REMARK    3  A    between atoms: C_5  and  S_6
REMARK    4  A    between atoms: S_6  and  C_8
REMARK    5  A    between atoms: C_8  and  C_9
REMARK    6  A    between atoms: C_13  and  C_14
REMARK                            x       y       z     vdW  Elec       q    Type
REMARK                         _______ _______ _______ _____ _____    ______ ____
ROOT
ATOM      1  C   UNL     1     -57.321 -41.939 -63.998  0.00  0.00    +0.000 A 
ATOM      2  C   UNL     1     -56.156 -42.223 -63.371  0.00  0.00    +0.000 A 
ATOM      3  N   UNL     1     -56.057 -42.391 -62.001  0.00  0.00    +0.000 N 
ATOM      4  C   UNL     1     -57.129 -42.146 -61.123  0.00  0.00    +0.000 A 
ATOM      5  C   UNL     1     -56.986 -42.325 -59.735  0.00  0.00    +0.000 A 
ATOM      6 BR   UNL     1     -55.315 -42.821 -58.980  0.00  0.00    +0.000 Br
ATOM      7  C   UNL     1     -58.066 -42.147 -58.869  0.00  0.00    +0.000 A 
ATOM      8  C   UNL     1     -59.308 -41.788 -59.381  0.00  0.00    +0.000 A 
ATOM      9  C   UNL     1     -59.483 -41.619 -60.758  0.00  0.00    +0.000 A 
ATOM     10 CL   UNL     1     -61.081 -41.160 -61.242  0.00  0.00    +0.000 Cl
ATOM     11  C   UNL     1     -58.398 -41.823 -61.637  0.00  0.00    +0.000 A 
ATOM     12  C   UNL     1     -58.515 -41.703 -63.113  0.00  0.00    +0.000 A 
ATOM     13  O   UNL     1     -59.586 -41.378 -63.611  0.00  0.00    +0.000 OA
ATOM     14  H   UNL     1     -55.123 -42.280 -61.604  0.00  0.00    +0.000 HD
ENDROOT
BRANCH   1  16
ATOM     15  C   UNL     1     -57.773 -43.091 -66.286  0.00  0.00    +0.000 C 
ATOM     16  C   UNL     1     -57.493 -41.830 -65.493  0.00  0.00    +0.000 C 
ATOM     17  O   UNL     1     -57.379 -40.761 -66.088  0.00  0.00    +0.000 OA
ENDBRANCH   1  16
BRANCH   2  18
ATOM     18  S   UNL     1     -54.574 -42.231 -64.289  0.00  0.00    +0.000 S 
ATOM     19  O   UNL     1     -54.352 -40.777 -64.612  0.00  0.00    +0.000 OA
BRANCH  18  20
ATOM     20  C   UNL     1     -53.403 -42.633 -62.938  0.00  0.00    +0.000 C 
BRANCH  20  21
ATOM     21  C   UNL     1     -52.728 -43.986 -63.121  0.00  0.00    +0.000 A 
ATOM     22  C   UNL     1     -53.256 -45.134 -62.512  0.00  0.00    +0.000 A 
ATOM     23  C   UNL     1     -52.632 -46.377 -62.667  0.00  0.00    +0.000 A 
ATOM     24  C   UNL     1     -51.466 -46.493 -63.424  0.00  0.00    +0.000 A 
ATOM     25  C   UNL     1     -50.912 -45.364 -64.021  0.00  0.00    +0.000 A 
ATOM     26  C   UNL     1     -51.538 -44.112 -63.865  0.00  0.00    +0.000 A 
BRANCH  25  27
ATOM     27  C   UNL     1     -49.699 -45.474 -64.787  0.00  0.00    +0.000 C 
ATOM     28  N   UNL     1     -48.720 -45.543 -65.415  0.00  0.00    +0.000 NA
ENDBRANCH  25  27
ENDBRANCH  20  21
ENDBRANCH  18  20
ENDBRANCH   2  18
TORSDOF 5
