REMARK VINA RESULT:    -6.693      2.516      4.248
REMARK INTER + INTRA:          -9.519
REMARK INTER:                  -8.529
REMARK INTRA:                  -0.990
REMARK UNBOUND:                -0.870
REMARK  Name = 
REMARK  8 active torsions:
REMARK  status: ('A' for Active; 'I' for Inactive)
REMARK    1  A    between atoms: C_1  and  C_2
REMARK    2  A    between atoms: C_4  and  C_5
REMARK    3  A    between atoms: C_5  and  S_6
REMARK    4  A    between atoms: S_6  and  C_8
REMARK    5  A    between atoms: C_20  and  C_21
REMARK    6  A    between atoms: C_21  and  C_23
REMARK    7  A    between atoms: C_23  and  C_24
REMARK    8  A    between atoms: C_23  and  C_25
REMARK                            x       y       z     vdW  Elec       q    Type
REMARK                         _______ _______ _______ _____ _____    ______ ____
ROOT
ATOM      1  C   UNL     1     -55.551 -42.690 -76.676  0.00  0.00    +0.000 A 
ATOM      2  N   UNL     1     -54.222 -43.002 -76.405  0.00  0.00    +0.000 N 
ATOM      3  C   UNL     1     -53.239 -42.001 -76.278  0.00  0.00    +0.000 A 
ATOM      4  C   UNL     1     -52.020 -42.229 -75.612  0.00  0.00    +0.000 A 
ATOM      5 BR   UNL     1     -51.697 -43.860 -74.699  0.00  0.00    +0.000 Br
ATOM      6  C   UNL     1     -51.030 -41.243 -75.568  0.00  0.00    +0.000 A 
ATOM      7  C   UNL     1     -51.246 -40.014 -76.185  0.00  0.00    +0.000 A 
ATOM      8  C   UNL     1     -52.460 -39.764 -76.850  0.00  0.00    +0.000 A 
ATOM      9 CL   UNL     1     -52.641 -38.181 -77.515  0.00  0.00    +0.000 Cl
ATOM     10  C   UNL     1     -53.456 -40.761 -76.900  0.00  0.00    +0.000 A 
ATOM     11  C   UNL     1     -54.756 -40.608 -77.603  0.00  0.00    +0.000 A 
ATOM     12  O   UNL     1     -54.867 -39.800 -78.521  0.00  0.00    +0.000 OA
ATOM     13  C   UNL     1     -55.926 -41.487 -77.172  0.00  0.00    +0.000 A 
ATOM     14  H   UNL     1     -54.102 -43.832 -75.808  0.00  0.00    +0.000 HD
ENDROOT
BRANCH   1  15
ATOM     15  S   UNL     1     -56.684 -44.001 -76.079  0.00  0.00    +0.000 S 
ATOM     16  O   UNL     1     -57.163 -43.484 -74.750  0.00  0.00    +0.000 OA
BRANCH  15  17
ATOM     17  C   UNL     1     -55.570 -45.415 -75.782  0.00  0.00    +0.000 C 
BRANCH  17  21
ATOM     18  C   UNL     1     -55.225 -48.365 -80.023  0.00  0.00    +0.000 C 
ATOM     19  C   UNL     1     -55.406 -47.688 -78.720  0.00  0.00    +0.000 A 
ATOM     20  C   UNL     1     -55.042 -46.469 -78.196  0.00  0.00    +0.000 A 
ATOM     21  C   UNL     1     -55.575 -46.459 -76.874  0.00  0.00    +0.000 A 
ATOM     22  N   UNL     1     -56.202 -47.622 -76.628  0.00  0.00    +0.000 NA
ATOM     23  O   UNL     1     -56.097 -48.381 -77.778  0.00  0.00    +0.000 OA
ENDBRANCH  17  21
ENDBRANCH  15  17
ENDBRANCH   1  15
BRANCH  13  24
ATOM     24  C   UNL     1     -57.311 -40.895 -77.316  0.00  0.00    +0.000 C 
ATOM     25  O   UNL     1     -57.664 -39.964 -76.593  0.00  0.00    +0.000 OA
BRANCH  24  26
ATOM     26  C   UNL     1     -58.305 -41.489 -78.314  0.00  0.00    +0.000 C 
ATOM     27  C   UNL     1     -59.533 -40.598 -78.488  0.00  0.00    +0.000 C 
ATOM     28  C   UNL     1     -57.656 -41.770 -79.671  0.00  0.00    +0.000 C 
ENDBRANCH  24  26
ENDBRANCH  13  24
TORSDOF 5
