REMARK VINA RESULT:    -5.433     20.956     24.428
REMARK INTER + INTRA:          -7.938
REMARK INTER:                  -6.756
REMARK INTRA:                  -1.182
REMARK UNBOUND:                -0.917
REMARK  Name = 
REMARK  6 active torsions:
REMARK  status: ('A' for Active; 'I' for Inactive)
REMARK    1  A    between atoms: C_1  and  C_2
REMARK    2  A    between atoms: C_4  and  C_5
REMARK    3  A    between atoms: C_5  and  S_6
REMARK    4  A    between atoms: S_6  and  C_8
REMARK    5  A    between atoms: C_20  and  C_21
REMARK    6  A    between atoms: C_21  and  C_23
REMARK                            x       y       z     vdW  Elec       q    Type
REMARK                         _______ _______ _______ _____ _____    ______ ____
ROOT
ATOM      1  C   UNL     1     -65.616 -47.937 -55.238  0.00  0.00    +0.000 A 
ATOM      2  N   UNL     1     -64.671 -47.471 -56.171  0.00  0.00    +0.000 N 
ATOM      3  C   UNL     1     -65.090 -46.925 -57.415  0.00  0.00    +0.000 A 
ATOM      4  C   UNL     1     -64.269 -46.103 -58.210  0.00  0.00    +0.000 A 
ATOM      5 BR   UNL     1     -62.581 -45.507 -57.583  0.00  0.00    +0.000 Br
ATOM      6  C   UNL     1     -64.682 -45.677 -59.480  0.00  0.00    +0.000 A 
ATOM      7  C   UNL     1     -65.942 -46.051 -59.960  0.00  0.00    +0.000 A 
ATOM      8  C   UNL     1     -66.774 -46.864 -59.191  0.00  0.00    +0.000 A 
ATOM      9 CL   UNL     1     -68.336 -47.208 -59.841  0.00  0.00    +0.000 Cl
ATOM     10  C   UNL     1     -66.335 -47.313 -57.936  0.00  0.00    +0.000 A 
ATOM     11  C   UNL     1     -67.108 -48.243 -57.090  0.00  0.00    +0.000 A 
ATOM     12  O   UNL     1     -67.858 -49.082 -57.573  0.00  0.00    +0.000 OA
ATOM     13  C   UNL     1     -66.892 -48.189 -55.606  0.00  0.00    +0.000 A 
ATOM     14  H   UNL     1     -63.909 -46.943 -55.723  0.00  0.00    +0.000 HD
ENDROOT
BRANCH   1  15
ATOM     15  S   UNL     1     -65.070 -47.718 -53.524  0.00  0.00    +0.000 S 
ATOM     16  O   UNL     1     -63.945 -46.723 -53.619  0.00  0.00    +0.000 OA
BRANCH  15  17
ATOM     17  C   UNL     1     -64.367 -49.276 -52.907  0.00  0.00    +0.000 C 
BRANCH  17  21
ATOM     18  C   UNL     1     -66.691 -53.622 -51.519  0.00  0.00    +0.000 C 
ATOM     19  C   UNL     1     -66.150 -52.275 -51.778  0.00  0.00    +0.000 A 
ATOM     20  C   UNL     1     -65.121 -51.776 -52.542  0.00  0.00    +0.000 A 
ATOM     21  C   UNL     1     -65.222 -50.374 -52.402  0.00  0.00    +0.000 A 
ATOM     22  N   UNL     1     -66.210 -50.055 -51.546  0.00  0.00    +0.000 NA
ATOM     23  O   UNL     1     -66.787 -51.247 -51.161  0.00  0.00    +0.000 OA
ENDBRANCH  17  21
ENDBRANCH  15  17
ENDBRANCH   1  15
BRANCH  13  24
ATOM     24  C   UNL     1     -68.153 -48.252 -54.814  0.00  0.00    +0.000 C 
ATOM     25  O   UNL     1     -68.914 -47.301 -54.785  0.00  0.00    +0.000 OA
BRANCH  24  26
ATOM     26  C   UNL     1     -68.486 -49.503 -54.106  0.00  0.00    +0.000 C 
ATOM     27  C   UNL     1     -68.033 -50.821 -54.677  0.00  0.00    +0.000 C 
ATOM     28  C   UNL     1     -69.491 -50.478 -54.670  0.00  0.00    +0.000 C 
ENDBRANCH  24  26
ENDBRANCH  13  24
TORSDOF 5
