REMARK VINA RESULT:    -6.596     11.662     14.458
REMARK INTER + INTRA:          -8.806
REMARK INTER:                  -8.039
REMARK INTRA:                  -0.766
REMARK UNBOUND:                -0.667
REMARK  Name = 
REMARK  6 active torsions:
REMARK  status: ('A' for Active; 'I' for Inactive)
REMARK    1  A    between atoms: C_1  and  C_2
REMARK    2  A    between atoms: C_2  and  C_4
REMARK    3  A    between atoms: C_5  and  S_6
REMARK    4  A    between atoms: S_6  and  C_8
REMARK    5  A    between atoms: C_8  and  C_9
REMARK    6  A    between atoms: C_11  and  C_12
REMARK                            x       y       z     vdW  Elec       q    Type
REMARK                         _______ _______ _______ _____ _____    ______ ____
ROOT
ATOM      1  C   UNL     1     -56.372 -42.008 -76.213  0.00  0.00    +0.000 A 
ATOM      2  C   UNL     1     -55.110 -42.084 -76.693  0.00  0.00    +0.000 A 
ATOM      3  N   UNL     1     -54.804 -41.990 -78.036  0.00  0.00    +0.000 N 
ATOM      4  C   UNL     1     -55.783 -41.903 -79.040  0.00  0.00    +0.000 A 
ATOM      5  C   UNL     1     -55.420 -41.767 -80.394  0.00  0.00    +0.000 A 
ATOM      6 BR   UNL     1     -53.594 -41.762 -80.920  0.00  0.00    +0.000 Br
ATOM      7  C   UNL     1     -56.387 -41.625 -81.386  0.00  0.00    +0.000 A 
ATOM      8  C   UNL     1     -57.734 -41.612 -81.037  0.00  0.00    +0.000 A 
ATOM      9  C   UNL     1     -58.120 -41.719 -79.696  0.00  0.00    +0.000 A 
ATOM     10 CL   UNL     1     -59.827 -41.679 -79.419  0.00  0.00    +0.000 Cl
ATOM     11  C   UNL     1     -57.143 -41.842 -78.688  0.00  0.00    +0.000 A 
ATOM     12  C   UNL     1     -57.470 -41.947 -77.239  0.00  0.00    +0.000 A 
ATOM     13  O   UNL     1     -58.638 -42.035 -76.879  0.00  0.00    +0.000 OA
ATOM     14  H   UNL     1     -53.909 -42.394 -78.318  0.00  0.00    +0.000 HD
ENDROOT
BRANCH   1  16
ATOM     15  C   UNL     1     -57.052 -43.348 -74.094  0.00  0.00    +0.000 C 
ATOM     16  C   UNL     1     -56.737 -42.024 -74.753  0.00  0.00    +0.000 C 
ATOM     17  O   UNL     1     -56.817 -40.989 -74.092  0.00  0.00    +0.000 OA
ENDBRANCH   1  16
BRANCH   2  18
ATOM     18  S   UNL     1     -53.708 -42.500 -75.601  0.00  0.00    +0.000 S 
ATOM     19  O   UNL     1     -53.761 -44.003 -75.524  0.00  0.00    +0.000 OA
BRANCH  18  20
ATOM     20  C   UNL     1     -52.321 -42.101 -76.723  0.00  0.00    +0.000 C 
BRANCH  20  21
ATOM     21  C   UNL     1     -51.601 -40.864 -76.291  0.00  0.00    +0.000 A 
ATOM     22  C   UNL     1     -50.358 -40.742 -75.615  0.00  0.00    +0.000 A 
ATOM     23  C   UNL     1     -50.138 -39.390 -75.537  0.00  0.00    +0.000 A 
ATOM     24  C   UNL     1     -49.057 -38.550 -74.988  0.00  0.00    +0.000 C 
ATOM     25  O   UNL     1     -51.174 -38.739 -76.125  0.00  0.00    +0.000 OA
ATOM     26  N   UNL     1     -52.092 -39.658 -76.603  0.00  0.00    +0.000 NA
ENDBRANCH  20  21
ENDBRANCH  18  20
ENDBRANCH   2  18
TORSDOF 4
