REMARK VINA RESULT:    -6.079      4.249      6.289
REMARK INTER + INTRA:          -8.747
REMARK INTER:                  -7.675
REMARK INTRA:                  -1.071
REMARK UNBOUND:                -0.891
REMARK  Name = 
REMARK  6 active torsions:
REMARK  status: ('A' for Active; 'I' for Inactive)
REMARK    1  A    between atoms: C_1  and  C_2
REMARK    2  A    between atoms: C_4  and  C_5
REMARK    3  A    between atoms: C_5  and  S_6
REMARK    4  A    between atoms: S_6  and  C_8
REMARK    5  A    between atoms: C_20  and  C_21
REMARK    6  A    between atoms: C_21  and  C_23
REMARK                            x       y       z     vdW  Elec       q    Type
REMARK                         _______ _______ _______ _____ _____    ______ ____
ROOT
ATOM      1  C   UNL     1     -58.180 -44.341 -77.667  0.00  0.00    +0.000 A 
ATOM      2  N   UNL     1     -58.104 -45.698 -78.033  0.00  0.00    +0.000 N 
ATOM      3  C   UNL     1     -57.165 -46.565 -77.409  0.00  0.00    +0.000 A 
ATOM      4  C   UNL     1     -57.285 -47.968 -77.427  0.00  0.00    +0.000 A 
ATOM      5 BR   UNL     1     -58.827 -48.809 -78.144  0.00  0.00    +0.000 Br
ATOM      6  C   UNL     1     -56.281 -48.788 -76.895  0.00  0.00    +0.000 A 
ATOM      7  C   UNL     1     -55.150 -48.207 -76.310  0.00  0.00    +0.000 A 
ATOM      8  C   UNL     1     -55.010 -46.820 -76.279  0.00  0.00    +0.000 A 
ATOM      9 CL   UNL     1     -53.614 -46.201 -75.471  0.00  0.00    +0.000 Cl
ATOM     10  C   UNL     1     -56.005 -46.010 -76.847  0.00  0.00    +0.000 A 
ATOM     11  C   UNL     1     -55.904 -44.541 -76.937  0.00  0.00    +0.000 A 
ATOM     12  O   UNL     1     -54.824 -43.974 -77.041  0.00  0.00    +0.000 OA
ATOM     13  C   UNL     1     -57.178 -43.749 -76.979  0.00  0.00    +0.000 A 
ATOM     14  H   UNL     1     -59.034 -46.119 -78.163  0.00  0.00    +0.000 HD
ENDROOT
BRANCH   1  15
ATOM     15  S   UNL     1     -59.859 -43.674 -77.808  0.00  0.00    +0.000 S 
ATOM     16  O   UNL     1     -60.717 -44.884 -78.058  0.00  0.00    +0.000 OA
BRANCH  15  17
ATOM     17  C   UNL     1     -59.969 -42.615 -79.281  0.00  0.00    +0.000 C 
BRANCH  17  21
ATOM     18  C   UNL     1     -61.412 -37.712 -78.967  0.00  0.00    +0.000 C 
ATOM     19  C   UNL     1     -61.183 -39.157 -79.155  0.00  0.00    +0.000 A 
ATOM     20  C   UNL     1     -60.129 -40.008 -78.919  0.00  0.00    +0.000 A 
ATOM     21  C   UNL     1     -60.627 -41.289 -79.244  0.00  0.00    +0.000 A 
ATOM     22  N   UNL     1     -61.884 -41.201 -79.714  0.00  0.00    +0.000 NA
ATOM     23  O   UNL     1     -62.226 -39.866 -79.654  0.00  0.00    +0.000 OA
ENDBRANCH  17  21
ENDBRANCH  15  17
ENDBRANCH   1  15
BRANCH  13  24
ATOM     24  C   UNL     1     -57.160 -42.538 -76.110  0.00  0.00    +0.000 C 
ATOM     25  O   UNL     1     -57.147 -42.647 -74.896  0.00  0.00    +0.000 OA
BRANCH  24  26
ATOM     26  C   UNL     1     -57.108 -41.208 -76.745  0.00  0.00    +0.000 C 
ATOM     27  C   UNL     1     -56.624 -41.084 -78.167  0.00  0.00    +0.000 C 
ATOM     28  C   UNL     1     -55.791 -40.536 -77.049  0.00  0.00    +0.000 C 
ENDBRANCH  24  26
ENDBRANCH  13  24
TORSDOF 5
