REMARK VINA RESULT:    -5.599     14.618     15.761
REMARK INTER + INTRA:          -7.627
REMARK INTER:                  -6.944
REMARK INTRA:                  -0.684
REMARK UNBOUND:                -0.720
REMARK  Name = 
REMARK  6 active torsions:
REMARK  status: ('A' for Active; 'I' for Inactive)
REMARK    1  A    between atoms: C_1  and  C_2
REMARK    2  A    between atoms: C_2  and  C_4
REMARK    3  A    between atoms: C_5  and  S_6
REMARK    4  A    between atoms: S_6  and  C_8
REMARK    5  A    between atoms: C_8  and  C_9
REMARK    6  A    between atoms: C_11  and  C_12
REMARK                            x       y       z     vdW  Elec       q    Type
REMARK                         _______ _______ _______ _____ _____    ______ ____
ROOT
ATOM      1  C   UNL     1     -57.431 -40.989 -60.878  0.00  0.00    +0.000 A 
ATOM      2  C   UNL     1     -56.808 -41.472 -61.982  0.00  0.00    +0.000 A 
ATOM      3  N   UNL     1     -55.876 -42.493 -61.937  0.00  0.00    +0.000 N 
ATOM      4  C   UNL     1     -55.374 -43.017 -60.731  0.00  0.00    +0.000 A 
ATOM      5  C   UNL     1     -54.378 -44.007 -60.728  0.00  0.00    +0.000 A 
ATOM      6 BR   UNL     1     -53.589 -44.603 -62.351  0.00  0.00    +0.000 Br
ATOM      7  C   UNL     1     -53.928 -44.576 -59.536  0.00  0.00    +0.000 A 
ATOM      8  C   UNL     1     -54.479 -44.162 -58.326  0.00  0.00    +0.000 A 
ATOM      9  C   UNL     1     -55.477 -43.186 -58.301  0.00  0.00    +0.000 A 
ATOM     10 CL   UNL     1     -56.049 -42.770 -56.722  0.00  0.00    +0.000 Cl
ATOM     11  C   UNL     1     -55.937 -42.620 -59.508  0.00  0.00    +0.000 A 
ATOM     12  C   UNL     1     -56.995 -41.579 -59.561  0.00  0.00    +0.000 A 
ATOM     13  O   UNL     1     -57.490 -41.166 -58.515  0.00  0.00    +0.000 OA
ATOM     14  H   UNL     1     -55.268 -42.585 -62.750  0.00  0.00    +0.000 HD
ENDROOT
BRANCH   1  16
ATOM     15  C   UNL     1     -58.057 -38.467 -60.726  0.00  0.00    +0.000 C 
ATOM     16  C   UNL     1     -58.481 -39.911 -60.875  0.00  0.00    +0.000 C 
ATOM     17  O   UNL     1     -59.684 -40.175 -60.978  0.00  0.00    +0.000 OA
ENDBRANCH   1  16
BRANCH   2  18
ATOM     18  S   UNL     1     -57.045 -40.688 -63.616  0.00  0.00    +0.000 S 
ATOM     19  O   UNL     1     -55.930 -39.680 -63.695  0.00  0.00    +0.000 OA
BRANCH  18  20
ATOM     20  C   UNL     1     -56.552 -42.070 -64.706  0.00  0.00    +0.000 C 
BRANCH  20  21
ATOM     21  C   UNL     1     -57.583 -42.387 -65.746  0.00  0.00    +0.000 A 
ATOM     22  C   UNL     1     -58.671 -41.612 -66.229  0.00  0.00    +0.000 A 
ATOM     23  C   UNL     1     -59.264 -42.396 -67.186  0.00  0.00    +0.000 A 
ATOM     24  C   UNL     1     -60.450 -42.258 -68.054  0.00  0.00    +0.000 C 
ATOM     25  O   UNL     1     -58.558 -43.552 -67.308  0.00  0.00    +0.000 OA
ATOM     26  N   UNL     1     -57.502 -43.546 -66.416  0.00  0.00    +0.000 NA
ENDBRANCH  20  21
ENDBRANCH  18  20
ENDBRANCH   2  18
TORSDOF 4
