=
 OpenBabel09162516063D

 28 31  0  0  1  0  0  0  0  0999 V2000
  -55.4730  -42.0440  -63.1810 C   0  0  2  0  0  3  0  0  0  0  0  0
  -54.6750  -43.2040  -63.1750 N   0  0  0  0  0  0  0  0  0  0  0  0
  -53.2860  -43.1280  -63.4690 C   0  0  0  0  0  0  0  0  0  0  0  0
  -52.3690  -44.1340  -63.1110 C   0  0  0  0  0  0  0  0  0  0  0  0
  -52.8990  -45.6050  -62.0360 Br  0  0  0  0  0  0  0  0  0  0  0  0
  -51.0280  -44.0720  -63.5160 C   0  0  0  0  0  3  0  0  0  0  0  0
  -50.5820  -42.9780  -64.2670 C   0  0  0  0  0  3  0  0  0  0  0  0
  -51.4720  -41.9680  -64.6320 C   0  0  0  0  0  0  0  0  0  0  0  0
  -50.8080  -40.6280  -65.4950 Cl  0  0  0  0  0  0  0  0  0  0  0  0
  -52.8190  -42.0600  -64.2510 C   0  0  0  0  0  0  0  0  0  0  0  0
  -53.8490  -41.0860  -64.6620 C   0  0  0  0  0  0  0  0  0  0  0  0
  -53.7770  -40.4820  -65.7250 O   0  0  0  0  0  0  0  0  0  0  0  0
  -55.0430  -40.9080  -63.7730 C   0  0  2  0  0  3  0  0  0  0  0  0
  -54.8980  -43.8260  -62.3860 H   0  0  0  0  0  0  0  0  0  0  0  0
  -56.8290  -42.1250  -61.9820 S   0  0  2  0  0  0  0  0  0  0  0  0
  -56.4010  -43.1930  -61.0120 O   0  0  0  0  0  0  0  0  0  0  0  0
  -58.3360  -42.7150  -62.8080 C   0  0  0  0  0  2  0  0  0  0  0  0
  -58.6690  -42.7140  -67.9180 C   0  0  0  0  0  1  0  0  0  0  0  0
  -58.7340  -42.5750  -66.4510 C   0  0  0  0  0  0  0  0  0  0  0  0
  -58.1000  -43.1830  -65.3930 C   0  0  0  0  0  3  0  0  0  0  0  0
  -58.5730  -42.4950  -64.2540 C   0  0  0  0  0  0  0  0  0  0  0  0
  -59.4900  -41.5760  -64.6040 N   0  0  0  0  0  0  0  0  0  0  0  0
  -59.5850  -41.6290  -65.9790 O   0  0  0  0  0  0  0  0  0  0  0  0
  -55.4310  -39.4830  -63.5690 C   0  0  0  0  0  0  0  0  0  0  0  0
  -56.5800  -39.1210  -63.7540 O   0  0  0  0  0  0  0  0  0  0  0  0
  -54.4110  -38.5290  -63.0940 C   0  0  0  0  0  3  0  0  0  0  0  0
  -54.7730  -37.0740  -62.9380 C   0  0  0  0  0  2  0  0  0  0  0  0
  -53.8200  -37.4900  -64.0170 C   0  0  0  0  0  2  0  0  0  0  0  0
  1  2  1  0  0  0  0
  1 15  1  1  0  0  0
  2 14  1  0  0  0  0
  3  2  1  0  0  0  0
  3  4  1  0  0  0  0
  4  5  1  0  0  0  0
  6  4  2  0  0  0  0
  7  6  1  0  0  0  0
  8  7  2  0  0  0  0
  8 10  1  0  0  0  0
  9  8  1  0  0  0  0
 10  3  2  0  0  0  0
 11 10  1  0  0  0  0
 11 13  1  0  0  0  0
 12 11  2  0  0  0  0
 13 24  1  1  0  0  0
 13  1  1  0  0  0  0
 15 16  2  1  0  0  0
 17 15  1  0  0  0  0
 18 19  1  0  0  0  0
 19 23  1  0  0  0  0
 19 20  2  0  0  0  0
 20 21  1  0  0  0  0
 21 17  1  0  0  0  0
 22 21  2  0  0  0  0
 23 22  1  0  0  0  0
 24 26  1  0  0  0  0
 25 24  2  0  0  0  0
 26 27  1  0  0  0  0
 28 26  1  0  0  0  0
 28 27  1  0  0  0  0
M  END
>  <MODEL>
1

>  <REMARK>
 VINA RESULT:    -7.154      0.000      0.000
 INTER + INTRA:         -10.185
 INTER:                  -9.245
 INTRA:                  -0.940
 UNBOUND:                -0.940
  Name = 
  6 active torsions:
  status: ('A' for Active; 'I' for Inactive)
    1  A    between atoms: C_1  and  C_2
    2  A    between atoms: C_4  and  C_5
    3  A    between atoms: C_5  and  S_6
    4  A    between atoms: S_6  and  C_8
    5  A    between atoms: C_20  and  C_21
    6  A    between atoms: C_21  and  C_23
                            x       y       z     vdW  Elec       q    Type
                         _______ _______ _______ _____ _____    ______ ____

>  <TORSDO>
F 5

$$$$
