REMARK VINA RESULT:    -6.020     20.265     24.306
REMARK INTER + INTRA:          -8.701
REMARK INTER:                  -7.647
REMARK INTRA:                  -1.054
REMARK UNBOUND:                -0.922
REMARK  Name = 
REMARK  6 active torsions:
REMARK  status: ('A' for Active; 'I' for Inactive)
REMARK    1  A    between atoms: C_1  and  C_2
REMARK    2  A    between atoms: C_4  and  C_5
REMARK    3  A    between atoms: C_5  and  S_6
REMARK    4  A    between atoms: S_6  and  C_8
REMARK    5  A    between atoms: C_20  and  C_21
REMARK    6  A    between atoms: C_21  and  C_23
REMARK                            x       y       z     vdW  Elec       q    Type
REMARK                         _______ _______ _______ _____ _____    ______ ____
ROOT
ATOM      1  C   UNL     1     -65.747 -47.355 -55.640  0.00  0.00    +0.000 A 
ATOM      2  N   UNL     1     -66.579 -48.395 -56.098  0.00  0.00    +0.000 N 
ATOM      3  C   UNL     1     -66.815 -49.542 -55.291  0.00  0.00    +0.000 A 
ATOM      4  C   UNL     1     -67.905 -50.410 -55.492  0.00  0.00    +0.000 A 
ATOM      5 BR   UNL     1     -69.257 -50.009 -56.760  0.00  0.00    +0.000 Br
ATOM      6  C   UNL     1     -68.039 -51.589 -54.744  0.00  0.00    +0.000 A 
ATOM      7  C   UNL     1     -67.091 -51.898 -53.762  0.00  0.00    +0.000 A 
ATOM      8  C   UNL     1     -66.004 -51.051 -53.544  0.00  0.00    +0.000 A 
ATOM      9 CL   UNL     1     -64.932 -51.484 -52.262  0.00  0.00    +0.000 Cl
ATOM     10  C   UNL     1     -65.862 -49.893 -54.323  0.00  0.00    +0.000 A 
ATOM     11  C   UNL     1     -64.703 -48.984 -54.224  0.00  0.00    +0.000 A 
ATOM     12  O   UNL     1     -63.592 -49.389 -53.906  0.00  0.00    +0.000 OA
ATOM     13  C   UNL     1     -64.902 -47.547 -54.603  0.00  0.00    +0.000 A 
ATOM     14  H   UNL     1     -67.422 -48.040 -56.571  0.00  0.00    +0.000 HD
ENDROOT
BRANCH   1  15
ATOM     15  S   UNL     1     -66.257 -45.731 -56.260  0.00  0.00    +0.000 S 
ATOM     16  O   UNL     1     -67.274 -46.044 -57.323  0.00  0.00    +0.000 OA
BRANCH  15  17
ATOM     17  C   UNL     1     -64.849 -44.922 -57.075  0.00  0.00    +0.000 C 
BRANCH  17  21
ATOM     18  C   UNL     1     -62.106 -47.210 -60.744  0.00  0.00    +0.000 C 
ATOM     19  C   UNL     1     -62.729 -46.588 -59.561  0.00  0.00    +0.000 A 
ATOM     20  C   UNL     1     -63.899 -45.903 -59.331  0.00  0.00    +0.000 A 
ATOM     21  C   UNL     1     -63.908 -45.673 -57.938  0.00  0.00    +0.000 A 
ATOM     22  N   UNL     1     -62.775 -46.131 -57.377  0.00  0.00    +0.000 NA
ATOM     23  O   UNL     1     -62.042 -46.703 -58.396  0.00  0.00    +0.000 OA
ENDBRANCH  17  21
ENDBRANCH  15  17
ENDBRANCH   1  15
BRANCH  13  24
ATOM     24  C   UNL     1     -64.268 -46.584 -53.658  0.00  0.00    +0.000 C 
ATOM     25  O   UNL     1     -63.436 -45.785 -54.052  0.00  0.00    +0.000 OA
BRANCH  24  26
ATOM     26  C   UNL     1     -64.699 -46.584 -52.247  0.00  0.00    +0.000 C 
ATOM     27  C   UNL     1     -63.939 -45.760 -51.240  0.00  0.00    +0.000 C 
ATOM     28  C   UNL     1     -63.874 -47.255 -51.176  0.00  0.00    +0.000 C 
ENDBRANCH  24  26
ENDBRANCH  13  24
TORSDOF 5
