REMARK VINA RESULT:    -5.293      2.851      3.887
REMARK INTER + INTRA:          -7.573
REMARK INTER:                  -7.088
REMARK INTRA:                  -0.485
REMARK UNBOUND:                -1.042
REMARK  Name = 
REMARK  6 active torsions:
REMARK  status: ('A' for Active; 'I' for Inactive)
REMARK    1  A    between atoms: C_1  and  C_2
REMARK    2  A    between atoms: C_2  and  C_4
REMARK    3  A    between atoms: C_5  and  S_6
REMARK    4  A    between atoms: S_6  and  C_8
REMARK    5  A    between atoms: C_8  and  C_9
REMARK    6  A    between atoms: C_11  and  C_12
REMARK                            x       y       z     vdW  Elec       q    Type
REMARK                         _______ _______ _______ _____ _____    ______ ____
ROOT
ATOM      1  C   UNL     1     -53.904 -40.801 -78.001  0.00  0.00    +0.000 A 
ATOM      2  C   UNL     1     -54.787 -41.826 -77.984  0.00  0.00    +0.000 A 
ATOM      3  N   UNL     1     -54.658 -42.925 -77.159  0.00  0.00    +0.000 N 
ATOM      4  C   UNL     1     -53.543 -43.133 -76.333  0.00  0.00    +0.000 A 
ATOM      5  C   UNL     1     -53.464 -44.267 -75.500  0.00  0.00    +0.000 A 
ATOM      6 BR   UNL     1     -54.829 -45.591 -75.527  0.00  0.00    +0.000 Br
ATOM      7  C   UNL     1     -52.392 -44.450 -74.635  0.00  0.00    +0.000 A 
ATOM      8  C   UNL     1     -51.380 -43.495 -74.581  0.00  0.00    +0.000 A 
ATOM      9  C   UNL     1     -51.443 -42.349 -75.384  0.00  0.00    +0.000 A 
ATOM     10 CL   UNL     1     -50.109 -41.262 -75.216  0.00  0.00    +0.000 Cl
ATOM     11  C   UNL     1     -52.540 -42.154 -76.249  0.00  0.00    +0.000 A 
ATOM     12  C   UNL     1     -52.689 -40.958 -77.125  0.00  0.00    +0.000 A 
ATOM     13  O   UNL     1     -51.802 -40.114 -77.164  0.00  0.00    +0.000 OA
ATOM     14  H   UNL     1     -55.162 -43.764 -77.448  0.00  0.00    +0.000 HD
ENDROOT
BRANCH   1  16
ATOM     15  C   UNL     1     -53.936 -39.689 -80.352  0.00  0.00    +0.000 C 
ATOM     16  C   UNL     1     -54.047 -39.563 -78.849  0.00  0.00    +0.000 C 
ATOM     17  O   UNL     1     -54.225 -38.454 -78.351  0.00  0.00    +0.000 OA
ENDBRANCH   1  16
BRANCH   2  18
ATOM     18  S   UNL     1     -56.167 -41.908 -79.172  0.00  0.00    +0.000 S 
ATOM     19  O   UNL     1     -55.920 -43.198 -79.911  0.00  0.00    +0.000 OA
BRANCH  18  20
ATOM     20  C   UNL     1     -57.536 -42.248 -78.009  0.00  0.00    +0.000 C 
BRANCH  20  21
ATOM     21  C   UNL     1     -58.154 -43.590 -78.222  0.00  0.00    +0.000 A 
ATOM     22  C   UNL     1     -57.887 -44.831 -77.588  0.00  0.00    +0.000 A 
ATOM     23  C   UNL     1     -58.777 -45.710 -78.154  0.00  0.00    +0.000 A 
ATOM     24  C   UNL     1     -59.043 -47.152 -78.005  0.00  0.00    +0.000 C 
ATOM     25  O   UNL     1     -59.556 -45.039 -79.044  0.00  0.00    +0.000 OA
ATOM     26  N   UNL     1     -59.175 -43.711 -79.084  0.00  0.00    +0.000 NA
ENDBRANCH  20  21
ENDBRANCH  18  20
ENDBRANCH   2  18
TORSDOF 4
