REMARK VINA RESULT:    -5.695     15.475     18.526
REMARK INTER + INTRA:          -8.302
REMARK INTER:                  -7.160
REMARK INTRA:                  -1.142
REMARK UNBOUND:                -0.942
REMARK  Name = 
REMARK  8 active torsions:
REMARK  status: ('A' for Active; 'I' for Inactive)
REMARK    1  A    between atoms: C_1  and  C_2
REMARK    2  A    between atoms: C_4  and  C_5
REMARK    3  A    between atoms: C_5  and  S_6
REMARK    4  A    between atoms: S_6  and  C_8
REMARK    5  A    between atoms: C_20  and  C_21
REMARK    6  A    between atoms: C_21  and  C_23
REMARK    7  A    between atoms: C_23  and  C_24
REMARK    8  A    between atoms: C_23  and  C_25
REMARK                            x       y       z     vdW  Elec       q    Type
REMARK                         _______ _______ _______ _____ _____    ______ ____
ROOT
ATOM      1  C   UNL     1     -68.390 -51.064 -55.621  0.00  0.00    +0.000 A 
ATOM      2  N   UNL     1     -67.851 -52.233 -55.089  0.00  0.00    +0.000 N 
ATOM      3  C   UNL     1     -66.945 -52.206 -54.008  0.00  0.00    +0.000 A 
ATOM      4  C   UNL     1     -66.693 -53.342 -53.214  0.00  0.00    +0.000 A 
ATOM      5 CL   UNL     1     -67.610 -54.791 -53.430  0.00  0.00    +0.000 Cl
ATOM      6  C   UNL     1     -65.717 -53.322 -52.218  0.00  0.00    +0.000 A 
ATOM      7  C   UNL     1     -64.979 -52.156 -51.999  0.00  0.00    +0.000 A 
ATOM      8  C   UNL     1     -65.226 -51.011 -52.767  0.00  0.00    +0.000 A 
ATOM      9 CL   UNL     1     -64.299 -49.614 -52.358  0.00  0.00    +0.000 Cl
ATOM     10  C   UNL     1     -66.199 -51.042 -53.777  0.00  0.00    +0.000 A 
ATOM     11  C   UNL     1     -66.489 -49.917 -54.704  0.00  0.00    +0.000 A 
ATOM     12  O   UNL     1     -65.601 -49.116 -54.967  0.00  0.00    +0.000 OA
ATOM     13  C   UNL     1     -67.855 -49.836 -55.374  0.00  0.00    +0.000 A 
ATOM     14  H   UNL     1     -68.504 -53.028 -55.096  0.00  0.00    +0.000 HD
ENDROOT
BRANCH   1  15
ATOM     15  S   UNL     1     -69.999 -51.392 -56.449  0.00  0.00    +0.000 S 
ATOM     16  O   UNL     1     -70.133 -50.258 -57.428  0.00  0.00    +0.000 OA
BRANCH  15  17
ATOM     17  C   UNL     1     -71.217 -51.104 -55.101  0.00  0.00    +0.000 C 
BRANCH  17  21
ATOM     18  C   UNL     1     -69.842 -53.341 -50.647  0.00  0.00    +0.000 C 
ATOM     19  C   UNL     1     -70.159 -52.526 -51.839  0.00  0.00    +0.000 A 
ATOM     20  C   UNL     1     -70.584 -52.795 -53.119  0.00  0.00    +0.000 A 
ATOM     21  C   UNL     1     -70.736 -51.520 -53.733  0.00  0.00    +0.000 A 
ATOM     22  N   UNL     1     -70.387 -50.551 -52.870  0.00  0.00    +0.000 NA
ATOM     23  O   UNL     1     -70.035 -51.182 -51.692  0.00  0.00    +0.000 OA
ENDBRANCH  17  21
ENDBRANCH  15  17
ENDBRANCH   1  15
BRANCH  13  24
ATOM     24  C   UNL     1     -68.359 -48.428 -55.616  0.00  0.00    +0.000 C 
ATOM     25  O   UNL     1     -69.389 -48.037 -55.051  0.00  0.00    +0.000 OA
BRANCH  24  26
ATOM     26  C   UNL     1     -67.733 -47.511 -56.650  0.00  0.00    +0.000 C 
ATOM     27  C   UNL     1     -67.327 -48.316 -57.870  0.00  0.00    +0.000 C 
ATOM     28  C   UNL     1     -68.638 -46.328 -56.974  0.00  0.00    +0.000 C 
ENDBRANCH  24  26
ENDBRANCH  13  24
TORSDOF 5
