REMARK VINA RESULT:    -7.844      0.000      0.000
REMARK INTER + INTRA:         -10.936
REMARK INTER:                 -10.136
REMARK INTRA:                  -0.800
REMARK UNBOUND:                -0.800
REMARK  Name = 
REMARK  8 active torsions:
REMARK  status: ('A' for Active; 'I' for Inactive)
REMARK    1  A    between atoms: C_1  and  C_2
REMARK    2  A    between atoms: C_4  and  C_5
REMARK    3  A    between atoms: C_5  and  S_6
REMARK    4  A    between atoms: S_6  and  C_8
REMARK    5  A    between atoms: C_20  and  C_21
REMARK    6  A    between atoms: C_21  and  C_23
REMARK    7  A    between atoms: C_23  and  C_24
REMARK    8  A    between atoms: C_23  and  C_25
REMARK                            x       y       z     vdW  Elec       q    Type
REMARK                         _______ _______ _______ _____ _____    ______ ____
ROOT
ATOM      1  C   UNL     1     -55.620 -41.501 -63.606  0.00  0.00    +0.000 A 
ATOM      2  N   UNL     1     -54.296 -41.135 -63.829  0.00  0.00    +0.000 N 
ATOM      3  C   UNL     1     -53.264 -42.091 -63.878  0.00  0.00    +0.000 A 
ATOM      4  C   UNL     1     -52.028 -41.828 -64.498  0.00  0.00    +0.000 A 
ATOM      5 BR   UNL     1     -51.739 -40.215 -65.453  0.00  0.00    +0.000 Br
ATOM      6  C   UNL     1     -50.992 -42.767 -64.464  0.00  0.00    +0.000 A 
ATOM      7  C   UNL     1     -51.179 -43.983 -63.814  0.00  0.00    +0.000 A 
ATOM      8  C   UNL     1     -52.409 -44.269 -63.195  0.00  0.00    +0.000 A 
ATOM      9 CL   UNL     1     -52.546 -45.836 -62.483  0.00  0.00    +0.000 Cl
ATOM     10  C   UNL     1     -53.451 -43.319 -63.223  0.00  0.00    +0.000 A 
ATOM     11  C   UNL     1     -54.773 -43.511 -62.572  0.00  0.00    +0.000 A 
ATOM     12  O   UNL     1     -54.888 -44.292 -61.632  0.00  0.00    +0.000 OA
ATOM     13  C   UNL     1     -55.962 -42.703 -63.085  0.00  0.00    +0.000 A 
ATOM     14  H   UNL     1     -54.188 -40.321 -64.450  0.00  0.00    +0.000 HD
ENDROOT
BRANCH   1  15
ATOM     15  S   UNL     1     -56.785 -40.266 -64.297  0.00  0.00    +0.000 S 
ATOM     16  O   UNL     1     -57.450 -39.680 -63.081  0.00  0.00    +0.000 OA
BRANCH  15  17
ATOM     17  C   UNL     1     -58.004 -41.291 -65.186  0.00  0.00    +0.000 C 
BRANCH  17  21
ATOM     18  C   UNL     1     -55.644 -42.914 -69.499  0.00  0.00    +0.000 C 
ATOM     19  C   UNL     1     -56.428 -42.625 -68.278  0.00  0.00    +0.000 A 
ATOM     20  C   UNL     1     -56.387 -41.659 -67.299  0.00  0.00    +0.000 A 
ATOM     21  C   UNL     1     -57.470 -41.969 -66.427  0.00  0.00    +0.000 A 
ATOM     22  N   UNL     1     -58.102 -43.073 -66.860  0.00  0.00    +0.000 NA
ATOM     23  O   UNL     1     -57.453 -43.475 -68.012  0.00  0.00    +0.000 OA
ENDBRANCH  17  21
ENDBRANCH  15  17
ENDBRANCH   1  15
BRANCH  13  24
ATOM     24  C   UNL     1     -57.322 -43.356 -62.980  0.00  0.00    +0.000 C 
ATOM     25  O   UNL     1     -57.619 -44.291 -63.723  0.00  0.00    +0.000 OA
BRANCH  24  26
ATOM     26  C   UNL     1     -58.364 -42.818 -61.998  0.00  0.00    +0.000 C 
ATOM     27  C   UNL     1     -59.467 -43.838 -61.728  0.00  0.00    +0.000 C 
ATOM     28  C   UNL     1     -57.728 -42.363 -60.682  0.00  0.00    +0.000 C 
ENDBRANCH  24  26
ENDBRANCH  13  24
TORSDOF 5
