REMARK VINA RESULT:    -5.730     12.902     15.116
REMARK INTER + INTRA:          -8.327
REMARK INTER:                  -7.506
REMARK INTRA:                  -0.821
REMARK UNBOUND:                -0.922
REMARK  Name = 
REMARK  6 active torsions:
REMARK  status: ('A' for Active; 'I' for Inactive)
REMARK    1  A    between atoms: C_1  and  C_2
REMARK    2  A    between atoms: C_4  and  C_5
REMARK    3  A    between atoms: C_5  and  S_6
REMARK    4  A    between atoms: S_6  and  C_8
REMARK    5  A    between atoms: C_20  and  C_21
REMARK    6  A    between atoms: C_21  and  C_23
REMARK                            x       y       z     vdW  Elec       q    Type
REMARK                         _______ _______ _______ _____ _____    ______ ____
ROOT
ATOM      1  C   UNL     1     -56.767 -40.907 -61.229  0.00  0.00    +0.000 A 
ATOM      2  N   UNL     1     -56.648 -41.805 -60.150  0.00  0.00    +0.000 N 
ATOM      3  C   UNL     1     -55.604 -42.770 -60.124  0.00  0.00    +0.000 A 
ATOM      4  C   UNL     1     -55.185 -43.417 -58.946  0.00  0.00    +0.000 A 
ATOM      5 BR   UNL     1     -55.874 -42.909 -57.253  0.00  0.00    +0.000 Br
ATOM      6  C   UNL     1     -54.229 -44.441 -58.981  0.00  0.00    +0.000 A 
ATOM      7  C   UNL     1     -53.657 -44.812 -60.204  0.00  0.00    +0.000 A 
ATOM      8  C   UNL     1     -54.054 -44.184 -61.384  0.00  0.00    +0.000 A 
ATOM      9 CL   UNL     1     -53.237 -44.663 -62.828  0.00  0.00    +0.000 Cl
ATOM     10  C   UNL     1     -55.038 -43.185 -61.340  0.00  0.00    +0.000 A 
ATOM     11  C   UNL     1     -55.582 -42.525 -62.543  0.00  0.00    +0.000 A 
ATOM     12  O   UNL     1     -55.653 -43.105 -63.619  0.00  0.00    +0.000 OA
ATOM     13  C   UNL     1     -56.128 -41.136 -62.397  0.00  0.00    +0.000 A 
ATOM     14  H   UNL     1     -56.811 -41.347 -59.243  0.00  0.00    +0.000 HD
ENDROOT
BRANCH   1  15
ATOM     15  S   UNL     1     -57.444 -39.302 -60.728  0.00  0.00    +0.000 S 
ATOM     16  O   UNL     1     -57.900 -39.520 -59.311  0.00  0.00    +0.000 OA
BRANCH  15  17
ATOM     17  C   UNL     1     -58.917 -38.929 -61.723  0.00  0.00    +0.000 C 
BRANCH  17  21
ATOM     18  C   UNL     1     -61.179 -34.431 -62.659  0.00  0.00    +0.000 C 
ATOM     19  C   UNL     1     -60.349 -35.613 -62.362  0.00  0.00    +0.000 A 
ATOM     20  C   UNL     1     -60.602 -36.954 -62.192  0.00  0.00    +0.000 A 
ATOM     21  C   UNL     1     -59.326 -37.537 -62.024  0.00  0.00    +0.000 A 
ATOM     22  N   UNL     1     -58.371 -36.591 -62.023  0.00  0.00    +0.000 NA
ATOM     23  O   UNL     1     -59.016 -35.390 -62.236  0.00  0.00    +0.000 OA
ENDBRANCH  17  21
ENDBRANCH  15  17
ENDBRANCH   1  15
BRANCH  13  24
ATOM     24  C   UNL     1     -55.717 -40.213 -63.493  0.00  0.00    +0.000 C 
ATOM     25  O   UNL     1     -56.532 -39.818 -64.309  0.00  0.00    +0.000 OA
BRANCH  24  26
ATOM     26  C   UNL     1     -54.318 -39.748 -63.544  0.00  0.00    +0.000 C 
ATOM     27  C   UNL     1     -53.901 -38.770 -64.613  0.00  0.00    +0.000 C 
ATOM     28  C   UNL     1     -53.390 -40.178 -64.655  0.00  0.00    +0.000 C 
ENDBRANCH  24  26
ENDBRANCH  13  24
TORSDOF 5
