=
 OpenBabel09172513473D

 28 31  0  0  1  0  0  0  0  0999 V2000
  -55.7590  -42.8070  -76.6880 C   0  0  2  0  0  3  0  0  0  0  0  0
  -54.4380  -43.1730  -76.3660 N   0  0  0  0  0  0  0  0  0  0  0  0
  -53.4210  -42.1850  -76.2550 C   0  0  0  0  0  0  0  0  0  0  0  0
  -52.2080  -42.4050  -75.5740 C   0  0  0  0  0  0  0  0  0  0  0  0
  -51.9150  -43.9980  -74.5870 Br  0  0  0  0  0  0  0  0  0  0  0  0
  -51.1870  -41.4440  -75.5830 C   0  0  0  0  0  3  0  0  0  0  0  0
  -51.3820  -40.2330  -76.2570 C   0  0  0  0  0  3  0  0  0  0  0  0
  -52.5760  -39.9920  -76.9370 C   0  0  0  0  0  0  0  0  0  0  0  0
  -52.7460  -38.4400  -77.6740 Cl  0  0  0  0  0  0  0  0  0  0  0  0
  -53.5760  -40.9760  -76.9510 C   0  0  0  0  0  0  0  0  0  0  0  0
  -54.8340  -40.8460  -77.7120 C   0  0  0  0  0  0  0  0  0  0  0  0
  -54.8940  -40.2040  -78.7530 O   0  0  0  0  0  0  0  0  0  0  0  0
  -56.0360  -41.5940  -77.2170 C   0  0  2  0  0  3  0  0  0  0  0  0
  -54.4010  -43.8900  -75.6280 H   0  0  0  0  0  0  0  0  0  0  0  0
  -56.9900  -43.8960  -75.9240 S   0  0  2  0  0  0  0  0  0  0  0  0
  -57.7550  -44.4630  -77.0880 O   0  0  0  0  0  0  0  0  0  0  0  0
  -58.1520  -42.9020  -74.9420 C   0  0  0  0  0  2  0  0  0  0  0  0
  -55.9210  -40.9210  -70.7800 C   0  0  0  0  0  1  0  0  0  0  0  0
  -56.6990  -41.3280  -71.9650 C   0  0  0  0  0  0  0  0  0  0  0  0
  -56.5720  -42.3160  -72.9130 C   0  0  0  0  0  3  0  0  0  0  0  0
  -57.7290  -42.1910  -73.7130 C   0  0  0  0  0  0  0  0  0  0  0  0
  -58.4700  -41.1440  -73.3110 N   0  0  0  0  0  0  0  0  0  0  0  0
  -57.8220  -40.6090  -72.2170 O   0  0  0  0  0  0  0  0  0  0  0  0
  -57.2930  -40.7930  -77.2420 C   0  0  0  0  0  0  0  0  0  0  0  0
  -57.4950  -39.9330  -76.4030 O   0  0  0  0  0  0  0  0  0  0  0  0
  -58.2640  -41.0270  -78.3280 C   0  0  0  0  0  3  0  0  0  0  0  0
  -59.5620  -40.2620  -78.3380 C   0  0  0  0  0  2  0  0  0  0  0  0
  -59.5720  -41.7360  -78.0680 C   0  0  0  0  0  2  0  0  0  0  0  0
  1  2  1  0  0  0  0
  1 15  1  1  0  0  0
  2  3  1  0  0  0  0
  2 14  1  0  0  0  0
  3  4  1  0  0  0  0
  4  5  1  0  0  0  0
  6  4  2  0  0  0  0
  7  6  1  0  0  0  0
  8  7  2  0  0  0  0
  9  8  1  0  0  0  0
 10  8  1  0  0  0  0
 10  3  2  0  0  0  0
 11 13  1  0  0  0  0
 11 10  1  0  0  0  0
 12 11  2  0  0  0  0
 13 24  1  1  0  0  0
 13  1  1  0  0  0  0
 15 16  2  6  0  0  0
 15 17  1  0  0  0  0
 17 21  1  0  0  0  0
 19 18  1  0  0  0  0
 20 19  2  0  0  0  0
 21 22  2  0  0  0  0
 21 20  1  0  0  0  0
 22 23  1  0  0  0  0
 23 19  1  0  0  0  0
 24 25  2  0  0  0  0
 26 28  1  0  0  0  0
 26 24  1  0  0  0  0
 27 26  1  0  0  0  0
 27 28  1  0  0  0  0
M  END
>  <MODEL>
1

>  <REMARK>
 VINA RESULT:    -7.470      0.000      0.000
 INTER + INTRA:         -10.561
 INTER:                  -9.653
 INTRA:                  -0.908
 UNBOUND:                -0.908
  Name = 
  6 active torsions:
  status: ('A' for Active; 'I' for Inactive)
    1  A    between atoms: C_1  and  C_2
    2  A    between atoms: C_4  and  C_5
    3  A    between atoms: C_5  and  S_6
    4  A    between atoms: S_6  and  C_8
    5  A    between atoms: C_20  and  C_21
    6  A    between atoms: C_21  and  C_23
                            x       y       z     vdW  Elec       q    Type
                         _______ _______ _______ _____ _____    ______ ____

>  <TORSDO>
F 5

$$$$
