REMARK VINA RESULT:    -6.841     12.925     15.034
REMARK INTER + INTRA:          -9.728
REMARK INTER:                  -8.394
REMARK INTRA:                  -1.335
REMARK UNBOUND:                -0.887
REMARK  Name = 
REMARK  8 active torsions:
REMARK  status: ('A' for Active; 'I' for Inactive)
REMARK    1  A    between atoms: C_1  and  C_2
REMARK    2  A    between atoms: C_4  and  C_5
REMARK    3  A    between atoms: C_5  and  S_6
REMARK    4  A    between atoms: S_6  and  C_8
REMARK    5  A    between atoms: C_20  and  C_21
REMARK    6  A    between atoms: C_21  and  C_23
REMARK    7  A    between atoms: C_23  and  C_24
REMARK    8  A    between atoms: C_23  and  C_25
REMARK                            x       y       z     vdW  Elec       q    Type
REMARK                         _______ _______ _______ _____ _____    ______ ____
ROOT
ATOM      1  C   UNL     1     -55.444 -42.734 -78.606  0.00  0.00    +0.000 A 
ATOM      2  N   UNL     1     -55.537 -44.122 -78.574  0.00  0.00    +0.000 N 
ATOM      3  C   UNL     1     -55.064 -44.869 -77.478  0.00  0.00    +0.000 A 
ATOM      4  C   UNL     1     -55.502 -46.182 -77.221  0.00  0.00    +0.000 A 
ATOM      5 BR   UNL     1     -56.888 -46.967 -78.251  0.00  0.00    +0.000 Br
ATOM      6  C   UNL     1     -54.959 -46.929 -76.172  0.00  0.00    +0.000 A 
ATOM      7  C   UNL     1     -53.973 -46.373 -75.361  0.00  0.00    +0.000 A 
ATOM      8  C   UNL     1     -53.526 -45.060 -75.597  0.00  0.00    +0.000 A 
ATOM      9 CL   UNL     1     -52.354 -44.455 -74.483  0.00  0.00    +0.000 Cl
ATOM     10  C   UNL     1     -54.070 -44.309 -76.659  0.00  0.00    +0.000 A 
ATOM     11  C   UNL     1     -53.643 -42.929 -77.010  0.00  0.00    +0.000 A 
ATOM     12  O   UNL     1     -52.529 -42.530 -76.687  0.00  0.00    +0.000 OA
ATOM     13  C   UNL     1     -54.610 -42.044 -77.791  0.00  0.00    +0.000 A 
ATOM     14  H   UNL     1     -56.370 -44.495 -79.049  0.00  0.00    +0.000 HD
ENDROOT
BRANCH   1  15
ATOM     15  S   UNL     1     -56.718 -42.000 -79.699  0.00  0.00    +0.000 S 
ATOM     16  O   UNL     1     -57.515 -43.186 -80.169  0.00  0.00    +0.000 OA
BRANCH  15  17
ATOM     17  C   UNL     1     -55.747 -41.362 -81.106  0.00  0.00    +0.000 C 
BRANCH  17  21
ATOM     18  C   UNL     1     -50.892 -43.013 -81.818  0.00  0.00    +0.000 C 
ATOM     19  C   UNL     1     -52.334 -42.740 -81.639  0.00  0.00    +0.000 A 
ATOM     20  C   UNL     1     -53.081 -41.639 -81.284  0.00  0.00    +0.000 A 
ATOM     21  C   UNL     1     -54.436 -42.076 -81.339  0.00  0.00    +0.000 A 
ATOM     22  N   UNL     1     -54.481 -43.374 -81.687  0.00  0.00    +0.000 NA
ATOM     23  O   UNL     1     -53.174 -43.780 -81.876  0.00  0.00    +0.000 OA
ENDBRANCH  17  21
ENDBRANCH  15  17
ENDBRANCH   1  15
BRANCH  13  24
ATOM     24  C   UNL     1     -54.534 -40.557 -77.527  0.00  0.00    +0.000 C 
ATOM     25  O   UNL     1     -55.414 -39.999 -76.873  0.00  0.00    +0.000 OA
BRANCH  24  26
ATOM     26  C   UNL     1     -53.400 -39.723 -78.126  0.00  0.00    +0.000 C 
ATOM     27  C   UNL     1     -53.918 -38.716 -79.150  0.00  0.00    +0.000 C 
ATOM     28  C   UNL     1     -52.584 -39.009 -77.046  0.00  0.00    +0.000 C 
ENDBRANCH  24  26
ENDBRANCH  13  24
TORSDOF 5
