REMARK VINA RESULT:    -6.652      3.391      6.391
REMARK INTER + INTRA:          -9.442
REMARK INTER:                  -8.735
REMARK INTRA:                  -0.707
REMARK UNBOUND:                -1.235
REMARK  Name = 
REMARK  5 active torsions:
REMARK  status: ('A' for Active; 'I' for Inactive)
REMARK    1  A    between atoms: C_1  and  C_2
REMARK    2  A    between atoms: C_2  and  C_4
REMARK    3  A    between atoms: C_5  and  S_6
REMARK    4  A    between atoms: S_6  and  C_8
REMARK    5  A    between atoms: C_8  and  C_9
REMARK                            x       y       z     vdW  Elec       q    Type
REMARK                         _______ _______ _______ _____ _____    ______ ____
ROOT
ATOM      1  C   UNL     1     -56.530 -41.871 -63.339  0.00  0.00    +0.000 A 
ATOM      2  C   UNL     1     -55.380 -42.447 -62.916  0.00  0.00    +0.000 A 
ATOM      3  N   UNL     1     -55.161 -42.827 -61.604  0.00  0.00    +0.000 N 
ATOM      4  C   UNL     1     -56.058 -42.542 -60.563  0.00  0.00    +0.000 A 
ATOM      5  C   UNL     1     -55.784 -42.945 -59.244  0.00  0.00    +0.000 A 
ATOM      6 BR   UNL     1     -54.153 -43.820 -58.809  0.00  0.00    +0.000 Br
ATOM      7  C   UNL     1     -56.695 -42.716 -58.217  0.00  0.00    +0.000 A 
ATOM      8  C   UNL     1     -57.903 -42.083 -58.500  0.00  0.00    +0.000 A 
ATOM      9  C   UNL     1     -58.211 -41.694 -59.808  0.00  0.00    +0.000 A 
ATOM     10 CL   UNL     1     -59.743 -40.913 -60.000  0.00  0.00    +0.000 Cl
ATOM     11  C   UNL     1     -57.296 -41.943 -60.853  0.00  0.00    +0.000 A 
ATOM     12  C   UNL     1     -57.555 -41.575 -62.273  0.00  0.00    +0.000 A 
ATOM     13  O   UNL     1     -58.590 -40.994 -62.574  0.00  0.00    +0.000 OA
ATOM     14  H   UNL     1     -54.179 -42.903 -61.332  0.00  0.00    +0.000 HD
ENDROOT
BRANCH   1  16
ATOM     15  C   UNL     1     -57.407 -42.518 -65.703  0.00  0.00    +0.000 C 
ATOM     16  C   UNL     1     -56.819 -41.487 -64.765  0.00  0.00    +0.000 C 
ATOM     17  O   UNL     1     -56.564 -40.365 -65.200  0.00  0.00    +0.000 OA
ENDBRANCH   1  16
BRANCH   2  18
ATOM     18  S   UNL     1     -53.933 -42.618 -64.012  0.00  0.00    +0.000 S 
ATOM     19  O   UNL     1     -53.383 -41.217 -64.072  0.00  0.00    +0.000 OA
BRANCH  18  20
ATOM     20  C   UNL     1     -52.823 -43.550 -62.886  0.00  0.00    +0.000 C 
BRANCH  20  21
ATOM     21  C   UNL     1     -51.644 -44.175 -63.598  0.00  0.00    +0.000 A 
ATOM     22  C   UNL     1     -50.627 -43.382 -64.156  0.00  0.00    +0.000 A 
ATOM     23  C   UNL     1     -49.533 -43.968 -64.800  0.00  0.00    +0.000 A 
ATOM     24  C   UNL     1     -49.434 -45.354 -64.888  0.00  0.00    +0.000 A 
ATOM     25  C   UNL     1     -50.427 -46.154 -64.326  0.00  0.00    +0.000 A 
ATOM     26  C   UNL     1     -51.523 -45.571 -63.685  0.00  0.00    +0.000 A 
ENDBRANCH  20  21
ENDBRANCH  18  20
ENDBRANCH   2  18
TORSDOF 4
