REMARK VINA RESULT:    -4.826      8.641      9.892
REMARK INTER + INTRA:          -7.159
REMARK INTER:                  -6.578
REMARK INTRA:                  -0.581
REMARK UNBOUND:                -0.922
REMARK  Name = 
REMARK  6 active torsions:
REMARK  status: ('A' for Active; 'I' for Inactive)
REMARK    1  A    between atoms: C_1  and  C_2
REMARK    2  A    between atoms: C_4  and  C_5
REMARK    3  A    between atoms: C_5  and  S_6
REMARK    4  A    between atoms: S_6  and  C_8
REMARK    5  A    between atoms: C_20  and  C_21
REMARK    6  A    between atoms: C_21  and  C_23
REMARK                            x       y       z     vdW  Elec       q    Type
REMARK                         _______ _______ _______ _____ _____    ______ ____
ROOT
ATOM      1  C   UNL     1     -51.409 -45.140 -84.192  0.00  0.00    +0.000 A 
ATOM      2  N   UNL     1     -50.872 -46.305 -84.772  0.00  0.00    +0.000 N 
ATOM      3  C   UNL     1     -49.552 -46.307 -85.301  0.00  0.00    +0.000 A 
ATOM      4  C   UNL     1     -48.818 -47.487 -85.530  0.00  0.00    +0.000 A 
ATOM      5 BR   UNL     1     -49.480 -49.175 -84.975  0.00  0.00    +0.000 Br
ATOM      6  C   UNL     1     -47.563 -47.450 -86.155  0.00  0.00    +0.000 A 
ATOM      7  C   UNL     1     -47.014 -46.220 -86.534  0.00  0.00    +0.000 A 
ATOM      8  C   UNL     1     -47.722 -45.038 -86.315  0.00  0.00    +0.000 A 
ATOM      9 CL   UNL     1     -46.927 -43.569 -86.753  0.00  0.00    +0.000 Cl
ATOM     10  C   UNL     1     -48.992 -45.091 -85.722  0.00  0.00    +0.000 A 
ATOM     11  C   UNL     1     -49.849 -43.905 -85.529  0.00  0.00    +0.000 A 
ATOM     12  O   UNL     1     -49.806 -42.948 -86.291  0.00  0.00    +0.000 OA
ATOM     13  C   UNL     1     -50.845 -43.932 -84.407  0.00  0.00    +0.000 A 
ATOM     14  H   UNL     1     -51.103 -47.151 -84.234  0.00  0.00    +0.000 HD
ENDROOT
BRANCH   1  15
ATOM     15  S   UNL     1     -52.571 -45.503 -82.849  0.00  0.00    +0.000 S 
ATOM     16  O   UNL     1     -53.143 -46.847 -83.209  0.00  0.00    +0.000 OA
BRANCH  15  17
ATOM     17  C   UNL     1     -53.935 -44.304 -82.886  0.00  0.00    +0.000 C 
BRANCH  17  21
ATOM     18  C   UNL     1     -54.075 -41.245 -78.782  0.00  0.00    +0.000 C 
ATOM     19  C   UNL     1     -54.235 -42.064 -79.998  0.00  0.00    +0.000 A 
ATOM     20  C   UNL     1     -53.399 -42.856 -80.748  0.00  0.00    +0.000 A 
ATOM     21  C   UNL     1     -54.236 -43.426 -81.732  0.00  0.00    +0.000 A 
ATOM     22  N   UNL     1     -55.488 -42.946 -81.621  0.00  0.00    +0.000 NA
ATOM     23  O   UNL     1     -55.482 -42.097 -80.534  0.00  0.00    +0.000 OA
ENDBRANCH  17  21
ENDBRANCH  15  17
ENDBRANCH   1  15
BRANCH  13  24
ATOM     24  C   UNL     1     -50.901 -42.663 -83.626  0.00  0.00    +0.000 C 
ATOM     25  O   UNL     1     -50.424 -42.604 -82.506  0.00  0.00    +0.000 OA
BRANCH  24  26
ATOM     26  C   UNL     1     -51.502 -41.470 -84.250  0.00  0.00    +0.000 C 
ATOM     27  C   UNL     1     -52.688 -40.809 -83.596  0.00  0.00    +0.000 C 
ATOM     28  C   UNL     1     -52.865 -41.528 -84.898  0.00  0.00    +0.000 C 
ENDBRANCH  24  26
ENDBRANCH  13  24
TORSDOF 5
