REMARK VINA RESULT:    -5.800     12.899     16.861
REMARK INTER + INTRA:          -8.255
REMARK INTER:                  -7.457
REMARK INTRA:                  -0.798
REMARK UNBOUND:                -0.760
REMARK  Name = 
REMARK  8 active torsions:
REMARK  status: ('A' for Active; 'I' for Inactive)
REMARK    1  A    between atoms: C_1  and  C_2
REMARK    2  A    between atoms: C_4  and  C_5
REMARK    3  A    between atoms: C_5  and  S_6
REMARK    4  A    between atoms: S_6  and  C_8
REMARK    5  A    between atoms: C_20  and  C_21
REMARK    6  A    between atoms: C_21  and  C_23
REMARK    7  A    between atoms: C_23  and  C_24
REMARK    8  A    between atoms: C_23  and  C_25
REMARK                            x       y       z     vdW  Elec       q    Type
REMARK                         _______ _______ _______ _____ _____    ______ ____
ROOT
ATOM      1  C   UNL     1     -53.637 -42.467 -80.038  0.00  0.00    +0.000 A 
ATOM      2  N   UNL     1     -53.151 -41.916 -78.856  0.00  0.00    +0.000 N 
ATOM      3  C   UNL     1     -53.267 -42.591 -77.625  0.00  0.00    +0.000 A 
ATOM      4  C   UNL     1     -52.449 -42.281 -76.522  0.00  0.00    +0.000 A 
ATOM      5 BR   UNL     1     -51.023 -41.040 -76.682  0.00  0.00    +0.000 Br
ATOM      6  C   UNL     1     -52.636 -42.911 -75.288  0.00  0.00    +0.000 A 
ATOM      7  C   UNL     1     -53.641 -43.863 -75.140  0.00  0.00    +0.000 A 
ATOM      8  C   UNL     1     -54.465 -44.192 -76.232  0.00  0.00    +0.000 A 
ATOM      9 CL   UNL     1     -55.627 -45.437 -75.948  0.00  0.00    +0.000 Cl
ATOM     10  C   UNL     1     -54.280 -43.551 -77.475  0.00  0.00    +0.000 A 
ATOM     11  C   UNL     1     -55.116 -43.804 -78.677  0.00  0.00    +0.000 A 
ATOM     12  O   UNL     1     -56.254 -44.246 -78.552  0.00  0.00    +0.000 OA
ATOM     13  C   UNL     1     -54.534 -43.481 -80.050  0.00  0.00    +0.000 A 
ATOM     14  H   UNL     1     -52.306 -41.343 -78.979  0.00  0.00    +0.000 HD
ENDROOT
BRANCH   1  15
ATOM     15  S   UNL     1     -52.754 -41.804 -81.500  0.00  0.00    +0.000 S 
ATOM     16  O   UNL     1     -53.723 -42.016 -82.632  0.00  0.00    +0.000 OA
BRANCH  15  17
ATOM     17  C   UNL     1     -51.359 -42.961 -81.709  0.00  0.00    +0.000 C 
BRANCH  17  21
ATOM     18  C   UNL     1     -49.729 -44.198 -86.465  0.00  0.00    +0.000 C 
ATOM     19  C   UNL     1     -50.150 -43.649 -85.157  0.00  0.00    +0.000 A 
ATOM     20  C   UNL     1     -50.763 -44.162 -84.037  0.00  0.00    +0.000 A 
ATOM     21  C   UNL     1     -50.840 -43.071 -83.124  0.00  0.00    +0.000 A 
ATOM     22  N   UNL     1     -50.317 -41.968 -83.687  0.00  0.00    +0.000 NA
ATOM     23  O   UNL     1     -49.887 -42.333 -84.949  0.00  0.00    +0.000 OA
ENDBRANCH  17  21
ENDBRANCH  15  17
ENDBRANCH   1  15
BRANCH  13  24
ATOM     24  C   UNL     1     -54.998 -44.343 -81.203  0.00  0.00    +0.000 C 
ATOM     25  O   UNL     1     -56.104 -44.157 -81.710  0.00  0.00    +0.000 OA
BRANCH  24  26
ATOM     26  C   UNL     1     -54.126 -45.494 -81.707  0.00  0.00    +0.000 C 
ATOM     27  C   UNL     1     -54.471 -46.810 -81.014  0.00  0.00    +0.000 C 
ATOM     28  C   UNL     1     -54.213 -45.655 -83.227  0.00  0.00    +0.000 C 
ENDBRANCH  24  26
ENDBRANCH  13  24
TORSDOF 5
