REMARK VINA RESULT:    -5.859      3.182      5.274
REMARK INTER + INTRA:          -8.491
REMARK INTER:                  -7.418
REMARK INTRA:                  -1.073
REMARK UNBOUND:                -0.920
REMARK  Name = 
REMARK  8 active torsions:
REMARK  status: ('A' for Active; 'I' for Inactive)
REMARK    1  A    between atoms: C_1  and  C_2
REMARK    2  A    between atoms: C_4  and  C_5
REMARK    3  A    between atoms: C_5  and  S_6
REMARK    4  A    between atoms: S_6  and  C_8
REMARK    5  A    between atoms: C_20  and  C_21
REMARK    6  A    between atoms: C_21  and  C_23
REMARK    7  A    between atoms: C_23  and  C_24
REMARK    8  A    between atoms: C_23  and  C_25
REMARK                            x       y       z     vdW  Elec       q    Type
REMARK                         _______ _______ _______ _____ _____    ______ ____
ROOT
ATOM      1  C   UNL     1     -56.743 -42.809 -78.236  0.00  0.00    +0.000 A 
ATOM      2  N   UNL     1     -55.987 -42.472 -79.354  0.00  0.00    +0.000 N 
ATOM      3  C   UNL     1     -54.587 -42.332 -79.284  0.00  0.00    +0.000 A 
ATOM      4  C   UNL     1     -53.769 -42.409 -80.427  0.00  0.00    +0.000 A 
ATOM      5 BR   UNL     1     -54.495 -42.870 -82.118  0.00  0.00    +0.000 Br
ATOM      6  C   UNL     1     -52.391 -42.189 -80.341  0.00  0.00    +0.000 A 
ATOM      7  C   UNL     1     -51.810 -41.895 -79.111  0.00  0.00    +0.000 A 
ATOM      8  C   UNL     1     -52.609 -41.821 -77.955  0.00  0.00    +0.000 A 
ATOM      9 CL   UNL     1     -51.767 -41.520 -76.478  0.00  0.00    +0.000 Cl
ATOM     10  C   UNL     1     -54.000 -42.035 -78.043  0.00  0.00    +0.000 A 
ATOM     11  C   UNL     1     -54.933 -41.947 -76.890  0.00  0.00    +0.000 A 
ATOM     12  O   UNL     1     -54.632 -41.279 -75.906  0.00  0.00    +0.000 OA
ATOM     13  C   UNL     1     -56.266 -42.684 -76.974  0.00  0.00    +0.000 A 
ATOM     14  H   UNL     1     -56.360 -42.844 -80.238  0.00  0.00    +0.000 HD
ENDROOT
BRANCH   1  15
ATOM     15  S   UNL     1     -58.318 -43.618 -78.708  0.00  0.00    +0.000 S 
ATOM     16  O   UNL     1     -57.910 -45.026 -79.049  0.00  0.00    +0.000 OA
BRANCH  15  17
ATOM     17  C   UNL     1     -58.782 -42.762 -80.251  0.00  0.00    +0.000 C 
BRANCH  17  21
ATOM     18  C   UNL     1     -61.187 -38.446 -78.705  0.00  0.00    +0.000 C 
ATOM     19  C   UNL     1     -60.556 -39.624 -79.339  0.00  0.00    +0.000 A 
ATOM     20  C   UNL     1     -59.751 -40.651 -78.901  0.00  0.00    +0.000 A 
ATOM     21  C   UNL     1     -59.535 -41.468 -80.049  0.00  0.00    +0.000 A 
ATOM     22  N   UNL     1     -60.164 -40.935 -81.111  0.00  0.00    +0.000 NA
ATOM     23  O   UNL     1     -60.799 -39.792 -80.664  0.00  0.00    +0.000 OA
ENDBRANCH  17  21
ENDBRANCH  15  17
ENDBRANCH   1  15
BRANCH  13  24
ATOM     24  C   UNL     1     -56.841 -43.198 -75.673  0.00  0.00    +0.000 C 
ATOM     25  O   UNL     1     -56.371 -44.204 -75.143  0.00  0.00    +0.000 OA
BRANCH  24  26
ATOM     26  C   UNL     1     -58.053 -42.513 -75.039  0.00  0.00    +0.000 C 
ATOM     27  C   UNL     1     -58.023 -42.605 -73.516  0.00  0.00    +0.000 C 
ATOM     28  C   UNL     1     -58.181 -41.053 -75.481  0.00  0.00    +0.000 C 
ENDBRANCH  24  26
ENDBRANCH  13  24
TORSDOF 5
