REMARK VINA RESULT:    -5.952     12.521     14.963
REMARK INTER + INTRA:          -8.819
REMARK INTER:                  -7.946
REMARK INTRA:                  -0.874
REMARK UNBOUND:                -1.127
REMARK  Name = 
REMARK  8 active torsions:
REMARK  status: ('A' for Active; 'I' for Inactive)
REMARK    1  A    between atoms: C_1  and  C_2
REMARK    2  A    between atoms: C_4  and  C_5
REMARK    3  A    between atoms: C_5  and  S_6
REMARK    4  A    between atoms: S_6  and  C_8
REMARK    5  A    between atoms: C_20  and  C_21
REMARK    6  A    between atoms: C_21  and  C_23
REMARK    7  A    between atoms: C_23  and  C_24
REMARK    8  A    between atoms: C_23  and  C_25
REMARK                            x       y       z     vdW  Elec       q    Type
REMARK                         _______ _______ _______ _____ _____    ______ ____
ROOT
ATOM      1  C   UNL     1     -55.667 -43.494 -77.579  0.00  0.00    +0.000 A 
ATOM      2  N   UNL     1     -56.111 -43.149 -78.852  0.00  0.00    +0.000 N 
ATOM      3  C   UNL     1     -55.522 -42.097 -79.580  0.00  0.00    +0.000 A 
ATOM      4  C   UNL     1     -55.647 -41.992 -80.978  0.00  0.00    +0.000 A 
ATOM      5 BR   UNL     1     -56.485 -43.361 -81.989  0.00  0.00    +0.000 Br
ATOM      6  C   UNL     1     -55.119 -40.896 -81.667  0.00  0.00    +0.000 A 
ATOM      7  C   UNL     1     -54.454 -39.892 -80.969  0.00  0.00    +0.000 A 
ATOM      8  C   UNL     1     -54.313 -39.981 -79.572  0.00  0.00    +0.000 A 
ATOM      9 CL   UNL     1     -53.408 -38.714 -78.826  0.00  0.00    +0.000 Cl
ATOM     10  C   UNL     1     -54.852 -41.084 -78.877  0.00  0.00    +0.000 A 
ATOM     11  C   UNL     1     -54.784 -41.254 -77.402  0.00  0.00    +0.000 A 
ATOM     12  O   UNL     1     -54.646 -40.275 -76.676  0.00  0.00    +0.000 OA
ATOM     13  C   UNL     1     -54.911 -42.661 -76.825  0.00  0.00    +0.000 A 
ATOM     14  H   UNL     1     -56.450 -43.948 -79.406  0.00  0.00    +0.000 HD
ENDROOT
BRANCH   1  15
ATOM     15  S   UNL     1     -56.047 -45.243 -77.186  0.00  0.00    +0.000 S 
ATOM     16  O   UNL     1     -54.750 -45.960 -77.447  0.00  0.00    +0.000 OA
BRANCH  15  17
ATOM     17  C   UNL     1     -57.239 -45.715 -78.484  0.00  0.00    +0.000 C 
BRANCH  17  21
ATOM     18  C   UNL     1     -60.939 -49.169 -77.398  0.00  0.00    +0.000 C 
ATOM     19  C   UNL     1     -59.748 -48.336 -77.671  0.00  0.00    +0.000 A 
ATOM     20  C   UNL     1     -59.538 -47.063 -78.150  0.00  0.00    +0.000 A 
ATOM     21  C   UNL     1     -58.124 -46.886 -78.129  0.00  0.00    +0.000 A 
ATOM     22  N   UNL     1     -57.533 -48.007 -77.680  0.00  0.00    +0.000 NA
ATOM     23  O   UNL     1     -58.546 -48.902 -77.393  0.00  0.00    +0.000 OA
ENDBRANCH  17  21
ENDBRANCH  15  17
ENDBRANCH   1  15
BRANCH  13  24
ATOM     24  C   UNL     1     -54.162 -42.939 -75.540  0.00  0.00    +0.000 C 
ATOM     25  O   UNL     1     -54.716 -42.777 -74.454  0.00  0.00    +0.000 OA
BRANCH  24  26
ATOM     26  C   UNL     1     -52.692 -43.358 -75.579  0.00  0.00    +0.000 C 
ATOM     27  C   UNL     1     -51.760 -42.149 -75.613  0.00  0.00    +0.000 C 
ATOM     28  C   UNL     1     -52.328 -44.276 -74.409  0.00  0.00    +0.000 C 
ENDBRANCH  24  26
ENDBRANCH  13  24
TORSDOF 5
