REMARK VINA RESULT:    -5.790     13.952     15.464
REMARK INTER + INTRA:          -7.825
REMARK INTER:                  -6.987
REMARK INTRA:                  -0.838
REMARK UNBOUND:                -0.681
REMARK  Name = 
REMARK  6 active torsions:
REMARK  status: ('A' for Active; 'I' for Inactive)
REMARK    1  A    between atoms: C_1  and  C_2
REMARK    2  A    between atoms: C_2  and  C_4
REMARK    3  A    between atoms: C_5  and  S_6
REMARK    4  A    between atoms: S_6  and  C_8
REMARK    5  A    between atoms: C_8  and  C_9
REMARK    6  A    between atoms: C_11  and  C_12
REMARK                            x       y       z     vdW  Elec       q    Type
REMARK                         _______ _______ _______ _____ _____    ______ ____
ROOT
ATOM      1  C   UNL     1     -58.394 -44.974 -77.996  0.00  0.00    +0.000 A 
ATOM      2  C   UNL     1     -57.652 -43.947 -77.527  0.00  0.00    +0.000 A 
ATOM      3  N   UNL     1     -56.426 -44.112 -76.913  0.00  0.00    +0.000 N 
ATOM      4  C   UNL     1     -55.898 -45.375 -76.595  0.00  0.00    +0.000 A 
ATOM      5  C   UNL     1     -54.651 -45.495 -75.954  0.00  0.00    +0.000 A 
ATOM      6 BR   UNL     1     -53.665 -43.954 -75.437  0.00  0.00    +0.000 Br
ATOM      7  C   UNL     1     -54.098 -46.745 -75.683  0.00  0.00    +0.000 A 
ATOM      8  C   UNL     1     -54.788 -47.894 -76.054  0.00  0.00    +0.000 A 
ATOM      9  C   UNL     1     -56.020 -47.805 -76.714  0.00  0.00    +0.000 A 
ATOM     10 CL   UNL     1     -56.758 -49.321 -77.101  0.00  0.00    +0.000 Cl
ATOM     11  C   UNL     1     -56.569 -46.540 -77.009  0.00  0.00    +0.000 A 
ATOM     12  C   UNL     1     -57.862 -46.356 -77.724  0.00  0.00    +0.000 A 
ATOM     13  O   UNL     1     -58.522 -47.336 -78.055  0.00  0.00    +0.000 OA
ATOM     14  H   UNL     1     -56.131 -43.348 -76.306  0.00  0.00    +0.000 HD
ENDROOT
BRANCH   1  16
ATOM     15  C   UNL     1     -60.996 -44.913 -77.923  0.00  0.00    +0.000 C 
ATOM     16  C   UNL     1     -59.708 -44.821 -78.715  0.00  0.00    +0.000 C 
ATOM     17  O   UNL     1     -59.765 -44.637 -79.932  0.00  0.00    +0.000 OA
ENDBRANCH   1  16
BRANCH   2  18
ATOM     18  S   UNL     1     -58.297 -42.239 -77.506  0.00  0.00    +0.000 S 
ATOM     19  O   UNL     1     -57.682 -41.651 -76.264  0.00  0.00    +0.000 OA
BRANCH  18  20
ATOM     20  C   UNL     1     -57.353 -41.543 -78.909  0.00  0.00    +0.000 C 
BRANCH  20  21
ATOM     21  C   UNL     1     -55.934 -41.280 -78.529  0.00  0.00    +0.000 A 
ATOM     22  C   UNL     1     -55.390 -40.199 -77.787  0.00  0.00    +0.000 A 
ATOM     23  C   UNL     1     -54.047 -40.478 -77.703  0.00  0.00    +0.000 A 
ATOM     24  C   UNL     1     -52.883 -39.799 -77.102  0.00  0.00    +0.000 C 
ATOM     25  O   UNL     1     -53.798 -41.655 -78.336  0.00  0.00    +0.000 OA
ATOM     26  N   UNL     1     -54.979 -42.166 -78.847  0.00  0.00    +0.000 NA
ENDBRANCH  20  21
ENDBRANCH  18  20
ENDBRANCH   2  18
TORSDOF 4
