REMARK VINA RESULT:    -5.239     19.481     20.489
REMARK INTER + INTRA:          -7.267
REMARK INTER:                  -6.324
REMARK INTRA:                  -0.943
REMARK UNBOUND:                -0.804
REMARK  Name = 
REMARK  6 active torsions:
REMARK  status: ('A' for Active; 'I' for Inactive)
REMARK    1  A    between atoms: C_1  and  C_2
REMARK    2  A    between atoms: C_2  and  C_4
REMARK    3  A    between atoms: C_5  and  S_6
REMARK    4  A    between atoms: S_6  and  C_8
REMARK    5  A    between atoms: C_8  and  C_9
REMARK    6  A    between atoms: C_11  and  C_12
REMARK                            x       y       z     vdW  Elec       q    Type
REMARK                         _______ _______ _______ _____ _____    ______ ____
ROOT
ATOM      1  C   UNL     1     -63.535 -39.617 -83.240  0.00  0.00    +0.000 A 
ATOM      2  C   UNL     1     -62.488 -39.540 -82.391  0.00  0.00    +0.000 A 
ATOM      3  N   UNL     1     -62.478 -38.725 -81.277  0.00  0.00    +0.000 N 
ATOM      4  C   UNL     1     -63.528 -37.851 -80.955  0.00  0.00    +0.000 A 
ATOM      5  C   UNL     1     -63.505 -37.104 -79.764  0.00  0.00    +0.000 A 
ATOM      6 BR   UNL     1     -62.022 -37.198 -78.579  0.00  0.00    +0.000 Br
ATOM      7  C   UNL     1     -64.575 -36.286 -79.408  0.00  0.00    +0.000 A 
ATOM      8  C   UNL     1     -65.684 -36.202 -80.245  0.00  0.00    +0.000 A 
ATOM      9  C   UNL     1     -65.741 -36.950 -81.426  0.00  0.00    +0.000 A 
ATOM     10 CL   UNL     1     -67.183 -36.748 -82.359  0.00  0.00    +0.000 Cl
ATOM     11  C   UNL     1     -64.672 -37.800 -81.772  0.00  0.00    +0.000 A 
ATOM     12  C   UNL     1     -64.666 -38.654 -82.990  0.00  0.00    +0.000 A 
ATOM     13  O   UNL     1     -65.564 -38.553 -83.818  0.00  0.00    +0.000 OA
ATOM     14  H   UNL     1     -61.562 -38.480 -80.905  0.00  0.00    +0.000 HD
ENDROOT
BRANCH   1  16
ATOM     15  C   UNL     1     -63.192 -40.071 -85.767  0.00  0.00    +0.000 C 
ATOM     16  C   UNL     1     -63.632 -40.557 -84.406  0.00  0.00    +0.000 C 
ATOM     17  O   UNL     1     -64.092 -41.696 -84.285  0.00  0.00    +0.000 OA
ENDBRANCH   1  16
BRANCH   2  18
ATOM     18  S   UNL     1     -60.925 -40.426 -82.730  0.00  0.00    +0.000 S 
ATOM     19  O   UNL     1     -59.866 -39.464 -82.262  0.00  0.00    +0.000 OA
BRANCH  18  20
ATOM     20  C   UNL     1     -61.037 -41.716 -81.438  0.00  0.00    +0.000 C 
BRANCH  20  21
ATOM     21  C   UNL     1     -60.230 -41.370 -80.232  0.00  0.00    +0.000 A 
ATOM     22  C   UNL     1     -58.918 -41.784 -79.886  0.00  0.00    +0.000 A 
ATOM     23  C   UNL     1     -58.632 -41.099 -78.731  0.00  0.00    +0.000 A 
ATOM     24  C   UNL     1     -57.463 -41.027 -77.834  0.00  0.00    +0.000 C 
ATOM     25  O   UNL     1     -59.699 -40.325 -78.398  0.00  0.00    +0.000 OA
ATOM     26  N   UNL     1     -60.700 -40.486 -79.340  0.00  0.00    +0.000 NA
ENDBRANCH  20  21
ENDBRANCH  18  20
ENDBRANCH   2  18
TORSDOF 4
