REMARK VINA RESULT:    -5.778      3.756      5.947
REMARK INTER + INTRA:          -8.384
REMARK INTER:                  -7.440
REMARK INTRA:                  -0.944
REMARK UNBOUND:                -0.917
REMARK  Name = 
REMARK  6 active torsions:
REMARK  status: ('A' for Active; 'I' for Inactive)
REMARK    1  A    between atoms: C_1  and  C_2
REMARK    2  A    between atoms: C_4  and  C_5
REMARK    3  A    between atoms: C_5  and  S_6
REMARK    4  A    between atoms: S_6  and  C_8
REMARK    5  A    between atoms: C_20  and  C_21
REMARK    6  A    between atoms: C_21  and  C_23
REMARK                            x       y       z     vdW  Elec       q    Type
REMARK                         _______ _______ _______ _____ _____    ______ ____
ROOT
ATOM      1  C   UNL     1     -57.599 -43.901 -77.935  0.00  0.00    +0.000 A 
ATOM      2  N   UNL     1     -57.250 -45.264 -77.996  0.00  0.00    +0.000 N 
ATOM      3  C   UNL     1     -56.249 -45.794 -77.136  0.00  0.00    +0.000 A 
ATOM      4  C   UNL     1     -56.123 -47.169 -76.862  0.00  0.00    +0.000 A 
ATOM      5 BR   UNL     1     -57.408 -48.415 -77.488  0.00  0.00    +0.000 Br
ATOM      6  C   UNL     1     -55.055 -47.660 -76.097  0.00  0.00    +0.000 A 
ATOM      7  C   UNL     1     -54.112 -46.769 -75.572  0.00  0.00    +0.000 A 
ATOM      8  C   UNL     1     -54.218 -45.402 -75.829  0.00  0.00    +0.000 A 
ATOM      9 CL   UNL     1     -53.046 -44.381 -75.077  0.00  0.00    +0.000 Cl
ATOM     10  C   UNL     1     -55.271 -44.927 -76.626  0.00  0.00    +0.000 A 
ATOM     11  C   UNL     1     -55.416 -43.513 -77.022  0.00  0.00    +0.000 A 
ATOM     12  O   UNL     1     -54.445 -42.781 -77.169  0.00  0.00    +0.000 OA
ATOM     13  C   UNL     1     -56.795 -43.004 -77.321  0.00  0.00    +0.000 A 
ATOM     14  H   UNL     1     -58.074 -45.872 -78.097  0.00  0.00    +0.000 HD
ENDROOT
BRANCH   1  15
ATOM     15  S   UNL     1     -59.342 -43.609 -78.333  0.00  0.00    +0.000 S 
ATOM     16  O   UNL     1     -59.922 -44.989 -78.486  0.00  0.00    +0.000 OA
BRANCH  15  17
ATOM     17  C   UNL     1     -59.466 -42.785 -79.948  0.00  0.00    +0.000 C 
BRANCH  17  21
ATOM     18  C   UNL     1     -61.198 -38.159 -81.295  0.00  0.00    +0.000 C 
ATOM     19  C   UNL     1     -60.753 -39.436 -80.709  0.00  0.00    +0.000 A 
ATOM     20  C   UNL     1     -60.275 -40.620 -81.219  0.00  0.00    +0.000 A 
ATOM     21  C   UNL     1     -59.950 -41.392 -80.081  0.00  0.00    +0.000 A 
ATOM     22  N   UNL     1     -60.281 -40.735 -78.955  0.00  0.00    +0.000 NA
ATOM     23  O   UNL     1     -60.781 -39.512 -79.354  0.00  0.00    +0.000 OA
ENDBRANCH  17  21
ENDBRANCH  15  17
ENDBRANCH   1  15
BRANCH  13  24
ATOM     24  C   UNL     1     -57.081 -41.665 -76.733  0.00  0.00    +0.000 C 
ATOM     25  O   UNL     1     -57.245 -40.695 -77.452  0.00  0.00    +0.000 OA
BRANCH  24  26
ATOM     26  C   UNL     1     -57.208 -41.543 -75.268  0.00  0.00    +0.000 C 
ATOM     27  C   UNL     1     -57.623 -42.745 -74.459  0.00  0.00    +0.000 C 
ATOM     28  C   UNL     1     -58.559 -41.582 -74.594  0.00  0.00    +0.000 C 
ENDBRANCH  24  26
ENDBRANCH  13  24
TORSDOF 5
