REMARK VINA RESULT:    -5.320      9.351     12.825
REMARK INTER + INTRA:          -7.872
REMARK INTER:                  -7.221
REMARK INTRA:                  -0.651
REMARK UNBOUND:                -0.997
REMARK  Name = 
REMARK  8 active torsions:
REMARK  status: ('A' for Active; 'I' for Inactive)
REMARK    1  A    between atoms: C_1  and  C_2
REMARK    2  A    between atoms: C_4  and  C_5
REMARK    3  A    between atoms: C_5  and  S_6
REMARK    4  A    between atoms: S_6  and  C_8
REMARK    5  A    between atoms: C_20  and  C_21
REMARK    6  A    between atoms: C_21  and  C_23
REMARK    7  A    between atoms: C_23  and  C_24
REMARK    8  A    between atoms: C_23  and  C_25
REMARK                            x       y       z     vdW  Elec       q    Type
REMARK                         _______ _______ _______ _____ _____    ______ ____
ROOT
ATOM      1  C   UNL     1     -64.507 -37.512 -82.528  0.00  0.00    +0.000 A 
ATOM      2  N   UNL     1     -63.525 -38.220 -83.216  0.00  0.00    +0.000 N 
ATOM      3  C   UNL     1     -62.583 -39.025 -82.541  0.00  0.00    +0.000 A 
ATOM      4  C   UNL     1     -61.850 -40.031 -83.202  0.00  0.00    +0.000 A 
ATOM      5 CL   UNL     1     -62.191 -40.437 -84.846  0.00  0.00    +0.000 Cl
ATOM      6  C   UNL     1     -60.850 -40.744 -82.541  0.00  0.00    +0.000 A 
ATOM      7  C   UNL     1     -60.571 -40.460 -81.202  0.00  0.00    +0.000 A 
ATOM      8  C   UNL     1     -61.299 -39.474 -80.523  0.00  0.00    +0.000 A 
ATOM      9 CL   UNL     1     -60.909 -39.261 -78.856  0.00  0.00    +0.000 Cl
ATOM     10  C   UNL     1     -62.294 -38.751 -81.198  0.00  0.00    +0.000 A 
ATOM     11  C   UNL     1     -63.071 -37.632 -80.605  0.00  0.00    +0.000 A 
ATOM     12  O   UNL     1     -62.571 -36.967 -79.706  0.00  0.00    +0.000 OA
ATOM     13  C   UNL     1     -64.435 -37.281 -81.186  0.00  0.00    +0.000 A 
ATOM     14  H   UNL     1     -63.839 -38.579 -84.127  0.00  0.00    +0.000 HD
ENDROOT
BRANCH   1  15
ATOM     15  S   UNL     1     -65.962 -37.181 -83.602  0.00  0.00    +0.000 S 
ATOM     16  O   UNL     1     -66.240 -38.513 -84.244  0.00  0.00    +0.000 OA
BRANCH  15  17
ATOM     17  C   UNL     1     -65.269 -36.078 -84.899  0.00  0.00    +0.000 C 
BRANCH  17  21
ATOM     18  C   UNL     1     -67.543 -31.727 -86.522  0.00  0.00    +0.000 C 
ATOM     19  C   UNL     1     -67.059 -32.995 -85.935  0.00  0.00    +0.000 A 
ATOM     20  C   UNL     1     -66.028 -33.864 -86.206  0.00  0.00    +0.000 A 
ATOM     21  C   UNL     1     -66.119 -34.870 -85.204  0.00  0.00    +0.000 A 
ATOM     22  N   UNL     1     -67.171 -34.625 -84.404  0.00  0.00    +0.000 NA
ATOM     23  O   UNL     1     -67.748 -33.455 -84.859  0.00  0.00    +0.000 OA
ENDBRANCH  17  21
ENDBRANCH  15  17
ENDBRANCH   1  15
BRANCH  13  24
ATOM     24  C   UNL     1     -65.442 -36.769 -80.177  0.00  0.00    +0.000 C 
ATOM     25  O   UNL     1     -65.268 -35.667 -79.639  0.00  0.00    +0.000 OA
BRANCH  24  26
ATOM     26  C   UNL     1     -66.593 -37.621 -79.677  0.00  0.00    +0.000 C 
ATOM     27  C   UNL     1     -67.902 -37.092 -80.234  0.00  0.00    +0.000 C 
ATOM     28  C   UNL     1     -66.363 -39.101 -79.962  0.00  0.00    +0.000 C 
ENDBRANCH  24  26
ENDBRANCH  13  24
TORSDOF 5
