REMARK VINA RESULT:    -5.115      7.586     10.047
REMARK INTER + INTRA:          -7.152
REMARK INTER:                  -6.155
REMARK INTRA:                  -0.997
REMARK UNBOUND:                -0.841
REMARK  Name = 
REMARK  6 active torsions:
REMARK  status: ('A' for Active; 'I' for Inactive)
REMARK    1  A    between atoms: C_1  and  C_2
REMARK    2  A    between atoms: C_2  and  C_4
REMARK    3  A    between atoms: C_5  and  S_6
REMARK    4  A    between atoms: S_6  and  C_8
REMARK    5  A    between atoms: C_8  and  C_9
REMARK    6  A    between atoms: C_11  and  C_12
REMARK                            x       y       z     vdW  Elec       q    Type
REMARK                         _______ _______ _______ _____ _____    ______ ____
ROOT
ATOM      1  C   UNL     1     -56.627 -31.453 -60.565  0.00  0.00    +0.000 A 
ATOM      2  C   UNL     1     -57.215 -32.247 -61.488  0.00  0.00    +0.000 A 
ATOM      3  N   UNL     1     -56.626 -33.384 -62.004  0.00  0.00    +0.000 N 
ATOM      4  C   UNL     1     -55.298 -33.745 -61.726  0.00  0.00    +0.000 A 
ATOM      5  C   UNL     1     -54.727 -34.893 -62.311  0.00  0.00    +0.000 A 
ATOM      6 BR   UNL     1     -55.709 -35.949 -63.547  0.00  0.00    +0.000 Br
ATOM      7  C   UNL     1     -53.429 -35.285 -62.002  0.00  0.00    +0.000 A 
ATOM      8  C   UNL     1     -52.683 -34.538 -61.093  0.00  0.00    +0.000 A 
ATOM      9  C   UNL     1     -53.238 -33.408 -60.480  0.00  0.00    +0.000 A 
ATOM     10 CL   UNL     1     -52.185 -32.580 -59.384  0.00  0.00    +0.000 Cl
ATOM     11  C   UNL     1     -54.558 -33.017 -60.780  0.00  0.00    +0.000 A 
ATOM     12  C   UNL     1     -55.224 -31.832 -60.163  0.00  0.00    +0.000 A 
ATOM     13  O   UNL     1     -54.615 -31.138 -59.357  0.00  0.00    +0.000 OA
ATOM     14  H   UNL     1     -56.977 -33.683 -62.916  0.00  0.00    +0.000 HD
ENDROOT
BRANCH   1  16
ATOM     15  C   UNL     1     -58.132 -30.372 -58.733  0.00  0.00    +0.000 C 
ATOM     16  C   UNL     1     -57.265 -30.227 -59.965  0.00  0.00    +0.000 C 
ATOM     17  O   UNL     1     -57.100 -29.110 -60.449  0.00  0.00    +0.000 OA
ENDBRANCH   1  16
BRANCH   2  18
ATOM     18  S   UNL     1     -58.800 -31.788 -62.264  0.00  0.00    +0.000 S 
ATOM     19  O   UNL     1     -58.405 -30.730 -63.260  0.00  0.00    +0.000 OA
BRANCH  18  20
ATOM     20  C   UNL     1     -59.103 -33.307 -63.235  0.00  0.00    +0.000 C 
BRANCH  20  21
ATOM     21  C   UNL     1     -59.896 -34.319 -62.474  0.00  0.00    +0.000 A 
ATOM     22  C   UNL     1     -61.297 -34.548 -62.441  0.00  0.00    +0.000 A 
ATOM     23  C   UNL     1     -61.456 -35.601 -61.574  0.00  0.00    +0.000 A 
ATOM     24  C   UNL     1     -62.618 -36.325 -61.029  0.00  0.00    +0.000 C 
ATOM     25  O   UNL     1     -60.234 -36.015 -61.151  0.00  0.00    +0.000 OA
ATOM     26  N   UNL     1     -59.253 -35.221 -61.716  0.00  0.00    +0.000 NA
ENDBRANCH  20  21
ENDBRANCH  18  20
ENDBRANCH   2  18
TORSDOF 4
