REMARK VINA RESULT:    -7.424      0.000      0.000
REMARK INTER + INTRA:         -10.537
REMARK INTER:                  -9.594
REMARK INTRA:                  -0.943
REMARK UNBOUND:                -0.943
REMARK  Name = 
REMARK  6 active torsions:
REMARK  status: ('A' for Active; 'I' for Inactive)
REMARK    1  A    between atoms: C_1  and  C_2
REMARK    2  A    between atoms: C_4  and  C_5
REMARK    3  A    between atoms: C_5  and  S_6
REMARK    4  A    between atoms: S_6  and  C_8
REMARK    5  A    between atoms: C_20  and  C_21
REMARK    6  A    between atoms: C_21  and  C_23
REMARK                            x       y       z     vdW  Elec       q    Type
REMARK                         _______ _______ _______ _____ _____    ______ ____
ROOT
ATOM      1  C   UNL     1     -56.008 -42.733 -76.871  0.00  0.00    +0.000 A 
ATOM      2  N   UNL     1     -54.694 -43.100 -76.522  0.00  0.00    +0.000 N 
ATOM      3  C   UNL     1     -53.673 -42.116 -76.414  0.00  0.00    +0.000 A 
ATOM      4  C   UNL     1     -52.472 -42.330 -75.712  0.00  0.00    +0.000 A 
ATOM      5 BR   UNL     1     -52.201 -43.906 -74.692  0.00  0.00    +0.000 Br
ATOM      6  C   UNL     1     -51.445 -41.375 -75.723  0.00  0.00    +0.000 A 
ATOM      7  C   UNL     1     -51.624 -40.175 -76.420  0.00  0.00    +0.000 A 
ATOM      8  C   UNL     1     -52.806 -39.940 -77.122  0.00  0.00    +0.000 A 
ATOM      9 CL   UNL     1     -52.957 -38.400 -77.889  0.00  0.00    +0.000 Cl
ATOM     10  C   UNL     1     -53.811 -40.918 -77.133  0.00  0.00    +0.000 A 
ATOM     11  C   UNL     1     -55.057 -40.796 -77.915  0.00  0.00    +0.000 A 
ATOM     12  O   UNL     1     -55.098 -40.172 -78.968  0.00  0.00    +0.000 OA
ATOM     13  C   UNL     1     -56.270 -41.529 -77.425  0.00  0.00    +0.000 A 
ATOM     14  H   UNL     1     -54.672 -43.804 -75.772  0.00  0.00    +0.000 HD
ENDROOT
BRANCH   1  15
ATOM     15  S   UNL     1     -57.255 -43.801 -76.105  0.00  0.00    +0.000 S 
ATOM     16  O   UNL     1     -58.072 -44.305 -77.264  0.00  0.00    +0.000 OA
BRANCH  15  17
ATOM     17  C   UNL     1     -58.354 -42.799 -75.061  0.00  0.00    +0.000 C 
BRANCH  17  21
ATOM     18  C   UNL     1     -55.976 -40.931 -70.930  0.00  0.00    +0.000 C 
ATOM     19  C   UNL     1     -56.759 -41.280 -72.129  0.00  0.00    +0.000 A 
ATOM     20  C   UNL     1     -56.793 -42.358 -72.982  0.00  0.00    +0.000 A 
ATOM     21  C   UNL     1     -57.856 -42.076 -73.869  0.00  0.00    +0.000 A 
ATOM     22  N   UNL     1     -58.381 -40.867 -73.606  0.00  0.00    +0.000 NA
ATOM     23  O   UNL     1     -57.693 -40.374 -72.516  0.00  0.00    +0.000 OA
ENDBRANCH  17  21
ENDBRANCH  15  17
ENDBRANCH   1  15
BRANCH  13  24
ATOM     24  C   UNL     1     -57.522 -40.721 -77.483  0.00  0.00    +0.000 C 
ATOM     25  O   UNL     1     -57.714 -39.819 -76.686  0.00  0.00    +0.000 OA
BRANCH  24  26
ATOM     26  C   UNL     1     -58.501 -41.002 -78.550  0.00  0.00    +0.000 C 
ATOM     27  C   UNL     1     -59.777 -40.203 -78.615  0.00  0.00    +0.000 C 
ATOM     28  C   UNL     1     -59.829 -41.653 -78.243  0.00  0.00    +0.000 C 
ENDBRANCH  24  26
ENDBRANCH  13  24
TORSDOF 5
