REMARK VINA RESULT:    -4.983     16.324     17.354
REMARK INTER + INTRA:          -7.184
REMARK INTER:                  -6.516
REMARK INTRA:                  -0.668
REMARK UNBOUND:                -1.035
REMARK  Name = 
REMARK  6 active torsions:
REMARK  status: ('A' for Active; 'I' for Inactive)
REMARK    1  A    between atoms: C_1  and  C_2
REMARK    2  A    between atoms: C_2  and  C_4
REMARK    3  A    between atoms: C_5  and  S_6
REMARK    4  A    between atoms: S_6  and  C_8
REMARK    5  A    between atoms: C_8  and  C_9
REMARK    6  A    between atoms: C_11  and  C_12
REMARK                            x       y       z     vdW  Elec       q    Type
REMARK                         _______ _______ _______ _____ _____    ______ ____
ROOT
ATOM      1  C   UNL     1     -56.801 -41.991 -81.058  0.00  0.00    +0.000 A 
ATOM      2  C   UNL     1     -57.242 -42.012 -79.778  0.00  0.00    +0.000 A 
ATOM      3  N   UNL     1     -56.354 -41.994 -78.723  0.00  0.00    +0.000 N 
ATOM      4  C   UNL     1     -54.966 -41.911 -78.869  0.00  0.00    +0.000 A 
ATOM      5  C   UNL     1     -54.113 -41.906 -77.752  0.00  0.00    +0.000 A 
ATOM      6 BR   UNL     1     -54.816 -41.904 -75.987  0.00  0.00    +0.000 Br
ATOM      7  C   UNL     1     -52.726 -41.895 -77.899  0.00  0.00    +0.000 A 
ATOM      8  C   UNL     1     -52.167 -41.906 -79.175  0.00  0.00    +0.000 A 
ATOM      9  C   UNL     1     -52.988 -41.917 -80.303  0.00  0.00    +0.000 A 
ATOM     10 CL   UNL     1     -52.158 -41.955 -81.822  0.00  0.00    +0.000 Cl
ATOM     11  C   UNL     1     -54.388 -41.918 -80.140  0.00  0.00    +0.000 A 
ATOM     12  C   UNL     1     -55.317 -41.880 -81.283  0.00  0.00    +0.000 A 
ATOM     13  O   UNL     1     -54.845 -41.715 -82.400  0.00  0.00    +0.000 OA
ATOM     14  H   UNL     1     -56.747 -41.793 -77.813  0.00  0.00    +0.000 HD
ENDROOT
BRANCH   1  16
ATOM     15  C   UNL     1     -58.177 -40.603 -82.723  0.00  0.00    +0.000 C 
ATOM     16  C   UNL     1     -57.658 -41.968 -82.283  0.00  0.00    +0.000 C 
ATOM     17  O   UNL     1     -57.929 -42.974 -82.883  0.00  0.00    +0.000 OA
ENDBRANCH   1  16
BRANCH   2  18
ATOM     18  S   UNL     1     -59.020 -42.156 -79.317  0.00  0.00    +0.000 S 
ATOM     19  O   UNL     1     -59.032 -43.262 -78.296  0.00  0.00    +0.000 OA
BRANCH  18  20
ATOM     20  C   UNL     1     -59.354 -40.595 -78.374  0.00  0.00    +0.000 C 
BRANCH  20  21
ATOM     21  C   UNL     1     -60.354 -39.725 -79.055  0.00  0.00    +0.000 A 
ATOM     22  C   UNL     1     -60.819 -38.440 -78.684  0.00  0.00    +0.000 A 
ATOM     23  C   UNL     1     -61.773 -38.141 -79.623  0.00  0.00    +0.000 A 
ATOM     24  C   UNL     1     -62.682 -37.005 -79.834  0.00  0.00    +0.000 C 
ATOM     25  O   UNL     1     -61.859 -39.158 -80.520  0.00  0.00    +0.000 OA
ATOM     26  N   UNL     1     -60.952 -40.144 -80.183  0.00  0.00    +0.000 NA
ENDBRANCH  20  21
ENDBRANCH  18  20
ENDBRANCH   2  18
TORSDOF 4
