REMARK VINA RESULT:    -6.352      3.356      5.492
REMARK INTER + INTRA:          -9.117
REMARK INTER:                  -8.293
REMARK INTRA:                  -0.823
REMARK UNBOUND:                -0.908
REMARK  Name = 
REMARK  6 active torsions:
REMARK  status: ('A' for Active; 'I' for Inactive)
REMARK    1  A    between atoms: C_1  and  C_2
REMARK    2  A    between atoms: C_4  and  C_5
REMARK    3  A    between atoms: C_5  and  S_6
REMARK    4  A    between atoms: S_6  and  C_8
REMARK    5  A    between atoms: C_20  and  C_21
REMARK    6  A    between atoms: C_21  and  C_23
REMARK                            x       y       z     vdW  Elec       q    Type
REMARK                         _______ _______ _______ _____ _____    ______ ____
ROOT
ATOM      1  C   UNL     1     -56.351 -42.581 -78.005  0.00  0.00    +0.000 A 
ATOM      2  N   UNL     1     -55.612 -41.383 -77.953  0.00  0.00    +0.000 N 
ATOM      3  C   UNL     1     -54.300 -41.365 -77.404  0.00  0.00    +0.000 A 
ATOM      4  C   UNL     1     -53.373 -40.339 -77.663  0.00  0.00    +0.000 A 
ATOM      5 BR   UNL     1     -53.751 -38.974 -78.926  0.00  0.00    +0.000 Br
ATOM      6  C   UNL     1     -52.131 -40.303 -77.015  0.00  0.00    +0.000 A 
ATOM      7  C   UNL     1     -51.790 -41.318 -76.114  0.00  0.00    +0.000 A 
ATOM      8  C   UNL     1     -52.692 -42.347 -75.842  0.00  0.00    +0.000 A 
ATOM      9 CL   UNL     1     -52.149 -43.589 -74.772  0.00  0.00    +0.000 Cl
ATOM     10  C   UNL     1     -53.947 -42.352 -76.470  0.00  0.00    +0.000 A 
ATOM     11  C   UNL     1     -54.996 -43.349 -76.182  0.00  0.00    +0.000 A 
ATOM     12  O   UNL     1     -55.101 -43.876 -75.082  0.00  0.00    +0.000 OA
ATOM     13  C   UNL     1     -55.995 -43.650 -77.260  0.00  0.00    +0.000 A 
ATOM     14  H   UNL     1     -55.708 -40.828 -78.814  0.00  0.00    +0.000 HD
ENDROOT
BRANCH   1  15
ATOM     15  S   UNL     1     -57.461 -42.652 -79.436  0.00  0.00    +0.000 S 
ATOM     16  O   UNL     1     -57.064 -41.465 -80.271  0.00  0.00    +0.000 OA
BRANCH  15  17
ATOM     17  C   UNL     1     -59.173 -42.386 -78.890  0.00  0.00    +0.000 C 
BRANCH  17  21
ATOM     18  C   UNL     1     -61.227 -37.698 -79.047  0.00  0.00    +0.000 C 
ATOM     19  C   UNL     1     -60.699 -39.066 -79.204  0.00  0.00    +0.000 A 
ATOM     20  C   UNL     1     -59.958 -39.913 -78.415  0.00  0.00    +0.000 A 
ATOM     21  C   UNL     1     -59.889 -41.116 -79.152  0.00  0.00    +0.000 A 
ATOM     22  N   UNL     1     -60.493 -40.973 -80.345  0.00  0.00    +0.000 NA
ATOM     23  O   UNL     1     -60.998 -39.690 -80.372  0.00  0.00    +0.000 OA
ENDBRANCH  17  21
ENDBRANCH  15  17
ENDBRANCH   1  15
BRANCH  13  24
ATOM     24  C   UNL     1     -56.281 -45.104 -77.423  0.00  0.00    +0.000 C 
ATOM     25  O   UNL     1     -57.424 -45.522 -77.355  0.00  0.00    +0.000 OA
BRANCH  24  26
ATOM     26  C   UNL     1     -55.163 -46.021 -77.715  0.00  0.00    +0.000 C 
ATOM     27  C   UNL     1     -55.425 -47.502 -77.810  0.00  0.00    +0.000 C 
ATOM     28  C   UNL     1     -54.628 -46.963 -76.662  0.00  0.00    +0.000 C 
ENDBRANCH  24  26
ENDBRANCH  13  24
TORSDOF 5
