REMARK VINA RESULT:    -5.882      4.681      7.395
REMARK INTER + INTRA:          -7.904
REMARK INTER:                  -6.906
REMARK INTRA:                  -0.999
REMARK UNBOUND:                -0.647
REMARK  Name = 
REMARK  6 active torsions:
REMARK  status: ('A' for Active; 'I' for Inactive)
REMARK    1  A    between atoms: C_1  and  C_2
REMARK    2  A    between atoms: C_2  and  C_4
REMARK    3  A    between atoms: C_5  and  S_6
REMARK    4  A    between atoms: S_6  and  C_8
REMARK    5  A    between atoms: C_8  and  C_9
REMARK    6  A    between atoms: C_11  and  C_12
REMARK                            x       y       z     vdW  Elec       q    Type
REMARK                         _______ _______ _______ _____ _____    ______ ____
ROOT
ATOM      1  C   UNL     1     -55.388 -41.638 -79.677  0.00  0.00    +0.000 A 
ATOM      2  C   UNL     1     -56.742 -41.700 -79.473  0.00  0.00    +0.000 A 
ATOM      3  N   UNL     1     -57.268 -41.798 -78.211  0.00  0.00    +0.000 N 
ATOM      4  C   UNL     1     -56.504 -42.012 -77.057  0.00  0.00    +0.000 A 
ATOM      5  C   UNL     1     -57.132 -42.306 -75.828  0.00  0.00    +0.000 A 
ATOM      6 BR   UNL     1     -59.023 -42.469 -75.699  0.00  0.00    +0.000 Br
ATOM      7  C   UNL     1     -56.381 -42.492 -74.674  0.00  0.00    +0.000 A 
ATOM      8  C   UNL     1     -54.993 -42.404 -74.740  0.00  0.00    +0.000 A 
ATOM      9  C   UNL     1     -54.353 -42.134 -75.957  0.00  0.00    +0.000 A 
ATOM     10 CL   UNL     1     -52.626 -42.099 -75.902  0.00  0.00    +0.000 Cl
ATOM     11  C   UNL     1     -55.118 -41.932 -77.119  0.00  0.00    +0.000 A 
ATOM     12  C   UNL     1     -54.542 -41.574 -78.430  0.00  0.00    +0.000 A 
ATOM     13  O   UNL     1     -53.381 -41.184 -78.487  0.00  0.00    +0.000 OA
ATOM     14  H   UNL     1     -58.282 -41.875 -78.131  0.00  0.00    +0.000 HD
ENDROOT
BRANCH   1  16
ATOM     15  C   UNL     1     -54.549 -40.315 -81.770  0.00  0.00    +0.000 C 
ATOM     16  C   UNL     1     -54.661 -41.630 -80.997  0.00  0.00    +0.000 C 
ATOM     17  O   UNL     1     -54.167 -42.644 -81.440  0.00  0.00    +0.000 OA
ENDBRANCH   1  16
BRANCH   2  18
ATOM     18  S   UNL     1     -57.994 -41.848 -80.816  0.00  0.00    +0.000 S 
ATOM     19  O   UNL     1     -57.887 -43.301 -81.231  0.00  0.00    +0.000 OA
BRANCH  18  20
ATOM     20  C   UNL     1     -59.565 -41.750 -79.852  0.00  0.00    +0.000 C 
BRANCH  20  21
ATOM     21  C   UNL     1     -60.112 -40.376 -79.631  0.00  0.00    +0.000 A 
ATOM     22  C   UNL     1     -60.965 -39.571 -80.425  0.00  0.00    +0.000 A 
ATOM     23  C   UNL     1     -61.169 -38.440 -79.666  0.00  0.00    +0.000 A 
ATOM     24  C   UNL     1     -61.953 -37.211 -79.853  0.00  0.00    +0.000 C 
ATOM     25  O   UNL     1     -60.483 -38.549 -78.500  0.00  0.00    +0.000 OA
ATOM     26  N   UNL     1     -59.828 -39.763 -78.469  0.00  0.00    +0.000 NA
ENDBRANCH  20  21
ENDBRANCH  18  20
ENDBRANCH   2  18
TORSDOF 4
