REMARK VINA RESULT:    -5.532      4.761      7.018
REMARK INTER + INTRA:          -7.784
REMARK INTER:                  -6.743
REMARK INTRA:                  -1.042
REMARK UNBOUND:                -0.635
REMARK  Name = 
REMARK  6 active torsions:
REMARK  status: ('A' for Active; 'I' for Inactive)
REMARK    1  A    between atoms: C_1  and  C_2
REMARK    2  A    between atoms: C_4  and  C_5
REMARK    3  A    between atoms: C_5  and  S_6
REMARK    4  A    between atoms: S_6  and  C_8
REMARK    5  A    between atoms: C_20  and  C_21
REMARK    6  A    between atoms: C_21  and  C_23
REMARK                            x       y       z     vdW  Elec       q    Type
REMARK                         _______ _______ _______ _____ _____    ______ ____
ROOT
ATOM      1  C   UNL     1     -56.947 -37.561 -62.648  0.00  0.00    +0.000 A 
ATOM      2  N   UNL     1     -56.946 -38.933 -62.964  0.00  0.00    +0.000 N 
ATOM      3  C   UNL     1     -55.760 -39.568 -63.425  0.00  0.00    +0.000 A 
ATOM      4  C   UNL     1     -55.571 -40.962 -63.385  0.00  0.00    +0.000 A 
ATOM      5 BR   UNL     1     -56.832 -42.098 -62.538  0.00  0.00    +0.000 Br
ATOM      6  C   UNL     1     -54.433 -41.556 -63.951  0.00  0.00    +0.000 A 
ATOM      7  C   UNL     1     -53.453 -40.750 -64.541  0.00  0.00    +0.000 A 
ATOM      8  C   UNL     1     -53.617 -39.366 -64.590  0.00  0.00    +0.000 A 
ATOM      9 CL   UNL     1     -52.318 -38.457 -65.274  0.00  0.00    +0.000 Cl
ATOM     10  C   UNL     1     -54.777 -38.787 -64.052  0.00  0.00    +0.000 A 
ATOM     11  C   UNL     1     -55.078 -37.345 -64.134  0.00  0.00    +0.000 A 
ATOM     12  O   UNL     1     -54.686 -36.656 -65.067  0.00  0.00    +0.000 OA
ATOM     13  C   UNL     1     -55.955 -36.748 -63.073  0.00  0.00    +0.000 A 
ATOM     14  H   UNL     1     -57.476 -39.491 -62.280  0.00  0.00    +0.000 HD
ENDROOT
BRANCH   1  15
ATOM     15  S   UNL     1     -58.102 -37.155 -61.311  0.00  0.00    +0.000 S 
ATOM     16  O   UNL     1     -57.604 -37.955 -60.138  0.00  0.00    +0.000 OA
BRANCH  15  17
ATOM     17  C   UNL     1     -59.757 -37.776 -61.730  0.00  0.00    +0.000 C 
BRANCH  17  21
ATOM     18  C   UNL     1     -60.967 -42.609 -60.547  0.00  0.00    +0.000 C 
ATOM     19  C   UNL     1     -60.705 -41.165 -60.700  0.00  0.00    +0.000 A 
ATOM     20  C   UNL     1     -60.045 -40.396 -61.628  0.00  0.00    +0.000 A 
ATOM     21  C   UNL     1     -60.265 -39.065 -61.207  0.00  0.00    +0.000 A 
ATOM     22  N   UNL     1     -60.957 -39.044 -60.054  0.00  0.00    +0.000 NA
ATOM     23  O   UNL     1     -61.231 -40.359 -59.743  0.00  0.00    +0.000 OA
ENDBRANCH  17  21
ENDBRANCH  15  17
ENDBRANCH   1  15
BRANCH  13  24
ATOM     24  C   UNL     1     -55.466 -35.437 -62.560  0.00  0.00    +0.000 C 
ATOM     25  O   UNL     1     -55.935 -34.393 -62.981  0.00  0.00    +0.000 OA
BRANCH  24  26
ATOM     26  C   UNL     1     -54.441 -35.425 -61.500  0.00  0.00    +0.000 C 
ATOM     27  C   UNL     1     -53.761 -34.128 -61.140  0.00  0.00    +0.000 C 
ATOM     28  C   UNL     1     -52.982 -35.209 -61.825  0.00  0.00    +0.000 C 
ENDBRANCH  24  26
ENDBRANCH  13  24
TORSDOF 5
