REMARK VINA RESULT:    -5.689     13.245     15.844
REMARK INTER + INTRA:          -8.508
REMARK INTER:                  -7.564
REMARK INTRA:                  -0.944
REMARK UNBOUND:                -1.155
REMARK  Name = 
REMARK  6 active torsions:
REMARK  status: ('A' for Active; 'I' for Inactive)
REMARK    1  A    between atoms: C_1  and  C_2
REMARK    2  A    between atoms: C_4  and  C_5
REMARK    3  A    between atoms: C_5  and  S_6
REMARK    4  A    between atoms: S_6  and  C_8
REMARK    5  A    between atoms: C_20  and  C_21
REMARK    6  A    between atoms: C_21  and  C_23
REMARK                            x       y       z     vdW  Elec       q    Type
REMARK                         _______ _______ _______ _____ _____    ______ ____
ROOT
ATOM      1  C   UNL     1     -66.381 -48.232 -55.666  0.00  0.00    +0.000 A 
ATOM      2  N   UNL     1     -67.150 -49.377 -55.949  0.00  0.00    +0.000 N 
ATOM      3  C   UNL     1     -67.219 -50.450 -55.019  0.00  0.00    +0.000 A 
ATOM      4  C   UNL     1     -68.238 -51.421 -55.041  0.00  0.00    +0.000 A 
ATOM      5 BR   UNL     1     -69.715 -51.264 -56.221  0.00  0.00    +0.000 Br
ATOM      6  C   UNL     1     -68.208 -52.524 -54.175  0.00  0.00    +0.000 A 
ATOM      7  C   UNL     1     -67.163 -52.652 -53.253  0.00  0.00    +0.000 A 
ATOM      8  C   UNL     1     -66.143 -51.701 -53.211  0.00  0.00    +0.000 A 
ATOM      9 CL   UNL     1     -64.940 -51.911 -51.990  0.00  0.00    +0.000 Cl
ATOM     10  C   UNL     1     -66.166 -50.621 -54.107  0.00  0.00    +0.000 A 
ATOM     11  C   UNL     1     -65.089 -49.616 -54.195  0.00  0.00    +0.000 A 
ATOM     12  O   UNL     1     -63.925 -49.893 -53.937  0.00  0.00    +0.000 OA
ATOM     13  C   UNL     1     -65.445 -48.246 -54.692  0.00  0.00    +0.000 A 
ATOM     14  H   UNL     1     -68.055 -49.143 -56.379  0.00  0.00    +0.000 HD
ENDROOT
BRANCH   1  15
ATOM     15  S   UNL     1     -67.082 -46.726 -56.392  0.00  0.00    +0.000 S 
ATOM     16  O   UNL     1     -68.471 -46.653 -55.820  0.00  0.00    +0.000 OA
BRANCH  15  17
ATOM     17  C   UNL     1     -67.244 -46.938 -58.189  0.00  0.00    +0.000 C 
BRANCH  17  21
ATOM     18  C   UNL     1     -62.719 -47.080 -60.582  0.00  0.00    +0.000 C 
ATOM     19  C   UNL     1     -64.080 -47.197 -60.024  0.00  0.00    +0.000 A 
ATOM     20  C   UNL     1     -64.746 -46.617 -58.971  0.00  0.00    +0.000 A 
ATOM     21  C   UNL     1     -66.064 -47.116 -59.066  0.00  0.00    +0.000 A 
ATOM     22  N   UNL     1     -66.162 -47.999 -60.076  0.00  0.00    +0.000 NA
ATOM     23  O   UNL     1     -64.919 -48.044 -60.672  0.00  0.00    +0.000 OA
ENDBRANCH  17  21
ENDBRANCH  15  17
ENDBRANCH   1  15
BRANCH  13  24
ATOM     24  C   UNL     1     -64.829 -47.143 -53.901  0.00  0.00    +0.000 C 
ATOM     25  O   UNL     1     -64.024 -46.386 -54.416  0.00  0.00    +0.000 OA
BRANCH  24  26
ATOM     26  C   UNL     1     -65.245 -46.954 -52.498  0.00  0.00    +0.000 C 
ATOM     27  C   UNL     1     -64.466 -46.015 -51.614  0.00  0.00    +0.000 C 
ATOM     28  C   UNL     1     -64.415 -47.490 -51.356  0.00  0.00    +0.000 C 
ENDBRANCH  24  26
ENDBRANCH  13  24
TORSDOF 5
