REMARK VINA RESULT:    -5.487     24.333     26.595
REMARK INTER + INTRA:          -8.008
REMARK INTER:                  -7.099
REMARK INTRA:                  -0.909
REMARK UNBOUND:                -0.917
REMARK  Name = 
REMARK  6 active torsions:
REMARK  status: ('A' for Active; 'I' for Inactive)
REMARK    1  A    between atoms: C_1  and  C_2
REMARK    2  A    between atoms: C_4  and  C_5
REMARK    3  A    between atoms: C_5  and  S_6
REMARK    4  A    between atoms: S_6  and  C_8
REMARK    5  A    between atoms: C_20  and  C_21
REMARK    6  A    between atoms: C_21  and  C_23
REMARK                            x       y       z     vdW  Elec       q    Type
REMARK                         _______ _______ _______ _____ _____    ______ ____
ROOT
ATOM      1  C   UNL     1     -66.327 -50.931 -53.962  0.00  0.00    +0.000 A 
ATOM      2  N   UNL     1     -66.127 -49.946 -54.949  0.00  0.00    +0.000 N 
ATOM      3  C   UNL     1     -67.206 -49.512 -55.767  0.00  0.00    +0.000 A 
ATOM      4  C   UNL     1     -67.189 -48.298 -56.479  0.00  0.00    +0.000 A 
ATOM      5 BR   UNL     1     -65.778 -47.050 -56.255  0.00  0.00    +0.000 Br
ATOM      6  C   UNL     1     -68.226 -47.960 -57.360  0.00  0.00    +0.000 A 
ATOM      7  C   UNL     1     -69.312 -48.828 -57.517  0.00  0.00    +0.000 A 
ATOM      8  C   UNL     1     -69.352 -50.036 -56.820  0.00  0.00    +0.000 A 
ATOM      9 CL   UNL     1     -70.768 -51.002 -57.028  0.00  0.00    +0.000 Cl
ATOM     10  C   UNL     1     -68.291 -50.379 -55.969  0.00  0.00    +0.000 A 
ATOM     11  C   UNL     1     -68.204 -51.670 -55.258  0.00  0.00    +0.000 A 
ATOM     12  O   UNL     1     -68.690 -52.694 -55.720  0.00  0.00    +0.000 OA
ATOM     13  C   UNL     1     -67.427 -51.716 -53.976  0.00  0.00    +0.000 A 
ATOM     14  H   UNL     1     -65.523 -49.181 -54.619  0.00  0.00    +0.000 HD
ENDROOT
BRANCH   1  15
ATOM     15  S   UNL     1     -65.248 -50.704 -52.524  0.00  0.00    +0.000 S 
ATOM     16  O   UNL     1     -66.188 -50.314 -51.415  0.00  0.00    +0.000 OA
BRANCH  15  17
ATOM     17  C   UNL     1     -64.137 -49.297 -52.815  0.00  0.00    +0.000 C 
BRANCH  17  21
ATOM     18  C   UNL     1     -65.751 -44.679 -51.302  0.00  0.00    +0.000 C 
ATOM     19  C   UNL     1     -65.162 -46.005 -51.564  0.00  0.00    +0.000 A 
ATOM     20  C   UNL     1     -65.380 -46.993 -52.495  0.00  0.00    +0.000 A 
ATOM     21  C   UNL     1     -64.390 -47.963 -52.223  0.00  0.00    +0.000 A 
ATOM     22  N   UNL     1     -63.667 -47.609 -51.146  0.00  0.00    +0.000 NA
ATOM     23  O   UNL     1     -64.153 -46.384 -50.740  0.00  0.00    +0.000 OA
ENDBRANCH  17  21
ENDBRANCH  15  17
ENDBRANCH   1  15
BRANCH  13  24
ATOM     24  C   UNL     1     -68.103 -52.485 -52.893  0.00  0.00    +0.000 C 
ATOM     25  O   UNL     1     -68.980 -51.969 -52.222  0.00  0.00    +0.000 OA
BRANCH  24  26
ATOM     26  C   UNL     1     -67.725 -53.894 -52.679  0.00  0.00    +0.000 C 
ATOM     27  C   UNL     1     -67.799 -54.479 -51.292  0.00  0.00    +0.000 C 
ATOM     28  C   UNL     1     -66.464 -54.263 -51.935  0.00  0.00    +0.000 C 
ENDBRANCH  24  26
ENDBRANCH  13  24
TORSDOF 5
