REMARK VINA RESULT:    -6.396     11.654     14.221
REMARK INTER + INTRA:          -9.393
REMARK INTER:                  -8.459
REMARK INTRA:                  -0.934
REMARK UNBOUND:                -1.127
REMARK  Name = 
REMARK  8 active torsions:
REMARK  status: ('A' for Active; 'I' for Inactive)
REMARK    1  A    between atoms: C_1  and  C_2
REMARK    2  A    between atoms: C_4  and  C_5
REMARK    3  A    between atoms: C_5  and  S_6
REMARK    4  A    between atoms: S_6  and  C_8
REMARK    5  A    between atoms: C_20  and  C_21
REMARK    6  A    between atoms: C_21  and  C_23
REMARK    7  A    between atoms: C_23  and  C_24
REMARK    8  A    between atoms: C_23  and  C_25
REMARK                            x       y       z     vdW  Elec       q    Type
REMARK                         _______ _______ _______ _____ _____    ______ ____
ROOT
ATOM      1  C   UNL     1     -54.590 -41.808 -77.072  0.00  0.00    +0.000 A 
ATOM      2  N   UNL     1     -55.875 -42.004 -77.568  0.00  0.00    +0.000 N 
ATOM      3  C   UNL     1     -56.154 -41.925 -78.946  0.00  0.00    +0.000 A 
ATOM      4  C   UNL     1     -57.303 -42.510 -79.513  0.00  0.00    +0.000 A 
ATOM      5 BR   UNL     1     -58.465 -43.586 -78.469  0.00  0.00    +0.000 Br
ATOM      6  C   UNL     1     -57.596 -42.350 -80.870  0.00  0.00    +0.000 A 
ATOM      7  C   UNL     1     -56.744 -41.607 -81.682  0.00  0.00    +0.000 A 
ATOM      8  C   UNL     1     -55.588 -41.020 -81.137  0.00  0.00    +0.000 A 
ATOM      9 CL   UNL     1     -54.572 -40.183 -82.255  0.00  0.00    +0.000 Cl
ATOM     10  C   UNL     1     -55.295 -41.175 -79.766  0.00  0.00    +0.000 A 
ATOM     11  C   UNL     1     -54.119 -40.569 -79.090  0.00  0.00    +0.000 A 
ATOM     12  O   UNL     1     -53.584 -39.572 -79.564  0.00  0.00    +0.000 OA
ATOM     13  C   UNL     1     -53.618 -41.201 -77.794  0.00  0.00    +0.000 A 
ATOM     14  H   UNL     1     -56.429 -42.687 -77.033  0.00  0.00    +0.000 HD
ENDROOT
BRANCH   1  15
ATOM     15  S   UNL     1     -54.355 -42.653 -75.463  0.00  0.00    +0.000 S 
ATOM     16  O   UNL     1     -53.296 -43.684 -75.749  0.00  0.00    +0.000 OA
BRANCH  15  17
ATOM     17  C   UNL     1     -55.944 -43.513 -75.205  0.00  0.00    +0.000 C 
BRANCH  17  21
ATOM     18  C   UNL     1     -59.690 -41.494 -72.257  0.00  0.00    +0.000 C 
ATOM     19  C   UNL     1     -58.490 -42.015 -72.948  0.00  0.00    +0.000 A 
ATOM     20  C   UNL     1     -58.265 -42.747 -74.091  0.00  0.00    +0.000 A 
ATOM     21  C   UNL     1     -56.848 -42.869 -74.180  0.00  0.00    +0.000 A 
ATOM     22  N   UNL     1     -56.271 -42.258 -73.131  0.00  0.00    +0.000 NA
ATOM     23  O   UNL     1     -57.295 -41.726 -72.371  0.00  0.00    +0.000 OA
ENDBRANCH  17  21
ENDBRANCH  15  17
ENDBRANCH   1  15
BRANCH  13  24
ATOM     24  C   UNL     1     -52.134 -41.101 -77.519  0.00  0.00    +0.000 C 
ATOM     25  O   UNL     1     -51.331 -41.703 -78.231  0.00  0.00    +0.000 OA
BRANCH  24  26
ATOM     26  C   UNL     1     -51.623 -40.307 -76.317  0.00  0.00    +0.000 C 
ATOM     27  C   UNL     1     -50.181 -40.669 -75.971  0.00  0.00    +0.000 C 
ATOM     28  C   UNL     1     -51.754 -38.796 -76.532  0.00  0.00    +0.000 C 
ENDBRANCH  24  26
ENDBRANCH  13  24
TORSDOF 5
