REMARK VINA RESULT:    -5.722     14.830     19.375
REMARK INTER + INTRA:          -8.030
REMARK INTER:                  -7.316
REMARK INTRA:                  -0.714
REMARK UNBOUND:                -0.635
REMARK  Name = 
REMARK  6 active torsions:
REMARK  status: ('A' for Active; 'I' for Inactive)
REMARK    1  A    between atoms: C_1  and  C_2
REMARK    2  A    between atoms: C_4  and  C_5
REMARK    3  A    between atoms: C_5  and  S_6
REMARK    4  A    between atoms: S_6  and  C_8
REMARK    5  A    between atoms: C_20  and  C_21
REMARK    6  A    between atoms: C_21  and  C_23
REMARK                            x       y       z     vdW  Elec       q    Type
REMARK                         _______ _______ _______ _____ _____    ______ ____
ROOT
ATOM      1  C   UNL     1     -54.954 -41.314 -82.268  0.00  0.00    +0.000 A 
ATOM      2  N   UNL     1     -56.262 -40.817 -82.425  0.00  0.00    +0.000 N 
ATOM      3  C   UNL     1     -56.905 -40.861 -83.693  0.00  0.00    +0.000 A 
ATOM      4  C   UNL     1     -58.300 -40.757 -83.850  0.00  0.00    +0.000 A 
ATOM      5 BR   UNL     1     -59.456 -40.729 -82.347  0.00  0.00    +0.000 Br
ATOM      6  C   UNL     1     -58.883 -40.694 -85.124  0.00  0.00    +0.000 A 
ATOM      7  C   UNL     1     -58.071 -40.763 -86.261  0.00  0.00    +0.000 A 
ATOM      8  C   UNL     1     -56.686 -40.868 -86.130  0.00  0.00    +0.000 A 
ATOM      9 CL   UNL     1     -55.780 -41.019 -87.592  0.00  0.00    +0.000 Cl
ATOM     10  C   UNL     1     -56.112 -40.894 -84.850  0.00  0.00    +0.000 A 
ATOM     11  C   UNL     1     -54.655 -40.917 -84.613  0.00  0.00    +0.000 A 
ATOM     12  O   UNL     1     -53.867 -40.396 -85.392  0.00  0.00    +0.000 OA
ATOM     13  C   UNL     1     -54.160 -41.534 -83.339  0.00  0.00    +0.000 A 
ATOM     14  H   UNL     1     -56.875 -41.078 -81.641  0.00  0.00    +0.000 HD
ENDROOT
BRANCH   1  15
ATOM     15  S   UNL     1     -54.668 -42.011 -80.620  0.00  0.00    +0.000 S 
ATOM     16  O   UNL     1     -55.981 -42.647 -80.254  0.00  0.00    +0.000 OA
BRANCH  15  17
ATOM     17  C   UNL     1     -54.366 -40.666 -79.436  0.00  0.00    +0.000 C 
BRANCH  17  21
ATOM     18  C   UNL     1     -50.694 -39.946 -75.941  0.00  0.00    +0.000 C 
ATOM     19  C   UNL     1     -51.660 -40.342 -76.983  0.00  0.00    +0.000 A 
ATOM     20  C   UNL     1     -52.813 -39.794 -77.491  0.00  0.00    +0.000 A 
ATOM     21  C   UNL     1     -53.182 -40.657 -78.546  0.00  0.00    +0.000 A 
ATOM     22  N   UNL     1     -52.337 -41.701 -78.619  0.00  0.00    +0.000 NA
ATOM     23  O   UNL     1     -51.387 -41.497 -77.640  0.00  0.00    +0.000 OA
ENDBRANCH  17  21
ENDBRANCH  15  17
ENDBRANCH   1  15
BRANCH  13  24
ATOM     24  C   UNL     1     -52.975 -42.419 -83.522  0.00  0.00    +0.000 C 
ATOM     25  O   UNL     1     -53.077 -43.475 -84.123  0.00  0.00    +0.000 OA
BRANCH  24  26
ATOM     26  C   UNL     1     -51.667 -41.972 -83.006  0.00  0.00    +0.000 C 
ATOM     27  C   UNL     1     -50.450 -42.835 -83.225  0.00  0.00    +0.000 C 
ATOM     28  C   UNL     1     -51.005 -42.671 -81.842  0.00  0.00    +0.000 C 
ENDBRANCH  24  26
ENDBRANCH  13  24
TORSDOF 5
