REMARK VINA RESULT:    -6.407      4.574      8.158
REMARK INTER + INTRA:          -9.198
REMARK INTER:                  -8.719
REMARK INTRA:                  -0.478
REMARK UNBOUND:                -0.917
REMARK  Name = 
REMARK  6 active torsions:
REMARK  status: ('A' for Active; 'I' for Inactive)
REMARK    1  A    between atoms: C_1  and  C_2
REMARK    2  A    between atoms: C_4  and  C_5
REMARK    3  A    between atoms: C_5  and  S_6
REMARK    4  A    between atoms: S_6  and  C_8
REMARK    5  A    between atoms: C_20  and  C_21
REMARK    6  A    between atoms: C_21  and  C_23
REMARK                            x       y       z     vdW  Elec       q    Type
REMARK                         _______ _______ _______ _____ _____    ______ ____
ROOT
ATOM      1  C   UNL     1     -54.260 -41.516 -79.032  0.00  0.00    +0.000 A 
ATOM      2  N   UNL     1     -55.580 -41.909 -79.327  0.00  0.00    +0.000 N 
ATOM      3  C   UNL     1     -56.643 -41.601 -78.434  0.00  0.00    +0.000 A 
ATOM      4  C   UNL     1     -57.996 -41.605 -78.821  0.00  0.00    +0.000 A 
ATOM      5 BR   UNL     1     -58.495 -41.850 -80.635  0.00  0.00    +0.000 Br
ATOM      6  C   UNL     1     -59.019 -41.403 -77.884  0.00  0.00    +0.000 A 
ATOM      7  C   UNL     1     -58.694 -41.167 -76.543  0.00  0.00    +0.000 A 
ATOM      8  C   UNL     1     -57.359 -41.157 -76.136  0.00  0.00    +0.000 A 
ATOM      9 CL   UNL     1     -57.060 -40.785 -74.477  0.00  0.00    +0.000 Cl
ATOM     10  C   UNL     1     -56.346 -41.395 -77.077  0.00  0.00    +0.000 A 
ATOM     11  C   UNL     1     -54.916 -41.489 -76.726  0.00  0.00    +0.000 A 
ATOM     12  O   UNL     1     -54.546 -41.897 -75.632  0.00  0.00    +0.000 OA
ATOM     13  C   UNL     1     -53.908 -41.143 -77.782  0.00  0.00    +0.000 A 
ATOM     14  H   UNL     1     -55.817 -41.766 -80.318  0.00  0.00    +0.000 HD
ENDROOT
BRANCH   1  15
ATOM     15  S   UNL     1     -53.295 -41.148 -80.521  0.00  0.00    +0.000 S 
ATOM     16  O   UNL     1     -54.259 -41.378 -81.653  0.00  0.00    +0.000 OA
BRANCH  15  17
ATOM     17  C   UNL     1     -51.956 -42.364 -80.691  0.00  0.00    +0.000 C 
BRANCH  17  21
ATOM     18  C   UNL     1     -49.752 -43.199 -85.237  0.00  0.00    +0.000 C 
ATOM     19  C   UNL     1     -50.452 -43.161 -83.939  0.00  0.00    +0.000 A 
ATOM     20  C   UNL     1     -50.572 -42.233 -82.932  0.00  0.00    +0.000 A 
ATOM     21  C   UNL     1     -51.474 -42.818 -82.017  0.00  0.00    +0.000 A 
ATOM     22  N   UNL     1     -51.819 -44.054 -82.418  0.00  0.00    +0.000 NA
ATOM     23  O   UNL     1     -51.178 -44.262 -83.621  0.00  0.00    +0.000 OA
ENDBRANCH  17  21
ENDBRANCH  15  17
ENDBRANCH   1  15
BRANCH  13  24
ATOM     24  C   UNL     1     -52.785 -40.299 -77.284  0.00  0.00    +0.000 C 
ATOM     25  O   UNL     1     -52.958 -39.118 -77.040  0.00  0.00    +0.000 OA
BRANCH  24  26
ATOM     26  C   UNL     1     -51.473 -40.930 -77.047  0.00  0.00    +0.000 C 
ATOM     27  C   UNL     1     -51.275 -41.796 -75.830  0.00  0.00    +0.000 C 
ATOM     28  C   UNL     1     -50.577 -40.474 -75.921  0.00  0.00    +0.000 C 
ENDBRANCH  24  26
ENDBRANCH  13  24
TORSDOF 5
