MODEL 1
REMARK VINA RESULT:    -7.466      0.000      0.000
REMARK INTER + INTRA:         -10.522
REMARK INTER:                  -9.648
REMARK INTRA:                  -0.874
REMARK UNBOUND:                -0.874
REMARK  Name = 
REMARK  8 active torsions:
REMARK  status: ('A' for Active; 'I' for Inactive)
REMARK    1  A    between atoms: C_1  and  C_2
REMARK    2  A    between atoms: C_4  and  C_5
REMARK    3  A    between atoms: C_5  and  S_6
REMARK    4  A    between atoms: S_6  and  C_8
REMARK    5  A    between atoms: C_20  and  C_21
REMARK    6  A    between atoms: C_21  and  C_23
REMARK    7  A    between atoms: C_23  and  C_24
REMARK    8  A    between atoms: C_23  and  C_25
REMARK                            x       y       z     vdW  Elec       q    Type
REMARK                         _______ _______ _______ _____ _____    ______ ____
ROOT
ATOM      1  C   UNL     1     -55.872 -42.636 -76.556  0.00  0.00    +0.000 A 
ATOM      2  N   UNL     1     -54.567 -43.036 -76.286  0.00  0.00    +0.000 N 
ATOM      3  C   UNL     1     -53.506 -42.111 -76.241  0.00  0.00    +0.000 A 
ATOM      4  C   UNL     1     -52.294 -42.392 -75.581  0.00  0.00    +0.000 A 
ATOM      5 BR   UNL     1     -52.082 -43.982 -74.568  0.00  0.00    +0.000 Br
ATOM      6  C   UNL     1     -51.229 -41.489 -75.618  0.00  0.00    +0.000 A 
ATOM      7  C   UNL     1     -51.360 -40.289 -76.311  0.00  0.00    +0.000 A 
ATOM      8  C   UNL     1     -52.564 -39.985 -76.971  0.00  0.00    +0.000 A 
ATOM      9 CL   UNL     1     -52.633 -38.438 -77.735  0.00  0.00    +0.000 Cl
ATOM     10  C   UNL     1     -53.637 -40.900 -76.940  0.00  0.00    +0.000 A 
ATOM     11  C   UNL     1     -54.935 -40.688 -77.630  0.00  0.00    +0.000 A 
ATOM     12  O   UNL     1     -55.002 -39.935 -78.597  0.00  0.00    +0.000 OA
ATOM     13  C   UNL     1     -56.162 -41.441 -77.124  0.00  0.00    +0.000 A 
ATOM     14  H   UNL     1     -54.500 -43.833 -75.638  0.00  0.00    +0.000 HD
ENDROOT
BRANCH   1  15
ATOM     15  S   UNL     1     -57.093 -43.811 -75.856  0.00  0.00    +0.000 S 
ATOM     16  O   UNL     1     -57.802 -44.355 -77.067  0.00  0.00    +0.000 OA
BRANCH  15  17
ATOM     17  C   UNL     1     -58.246 -42.727 -74.949  0.00  0.00    +0.000 C 
BRANCH  17  21
ATOM     18  C   UNL     1     -55.793 -41.161 -70.668  0.00  0.00    +0.000 C 
ATOM     19  C   UNL     1     -56.574 -41.417 -71.898  0.00  0.00    +0.000 A 
ATOM     20  C   UNL     1     -56.659 -42.453 -72.800  0.00  0.00    +0.000 A 
ATOM     21  C   UNL     1     -57.649 -42.046 -73.740  0.00  0.00    +0.000 A 
ATOM     22  N   UNL     1     -58.107 -40.824 -73.418  0.00  0.00    +0.000 NA
ATOM     23  O   UNL     1     -57.439 -40.440 -72.271  0.00  0.00    +0.000 OA
ENDBRANCH  17  21
ENDBRANCH  15  17
ENDBRANCH   1  15
BRANCH  13  24
ATOM     24  C   UNL     1     -57.498 -40.750 -77.284  0.00  0.00    +0.000 C 
ATOM     25  O   UNL     1     -57.769 -39.762 -76.604  0.00  0.00    +0.000 OA
BRANCH  24  26
ATOM     26  C   UNL     1     -58.548 -41.312 -78.243  0.00  0.00    +0.000 C 
ATOM     27  C   UNL     1     -59.673 -40.313 -78.499  0.00  0.00    +0.000 C 
ATOM     28  C   UNL     1     -57.929 -41.765 -79.568  0.00  0.00    +0.000 C 
ENDBRANCH  24  26
ENDBRANCH  13  24
TORSDOF 5
ENDMDL
MODEL 2
REMARK VINA RESULT:    -7.331     12.367     13.672
REMARK INTER + INTRA:         -10.348
REMARK INTER:                  -9.074
REMARK INTRA:                  -1.274
REMARK UNBOUND:                -0.874
REMARK  Name = 
REMARK  8 active torsions:
REMARK  status: ('A' for Active; 'I' for Inactive)
REMARK    1  A    between atoms: C_1  and  C_2
REMARK    2  A    between atoms: C_4  and  C_5
REMARK    3  A    between atoms: C_5  and  S_6
REMARK    4  A    between atoms: S_6  and  C_8
REMARK    5  A    between atoms: C_20  and  C_21
REMARK    6  A    between atoms: C_21  and  C_23
REMARK    7  A    between atoms: C_23  and  C_24
REMARK    8  A    between atoms: C_23  and  C_25
REMARK                            x       y       z     vdW  Elec       q    Type
REMARK                         _______ _______ _______ _____ _____    ______ ____
ROOT
ATOM      1  C   UNL     1     -55.716 -41.498 -63.366  0.00  0.00    +0.000 A 
ATOM      2  N   UNL     1     -54.415 -41.092 -63.647  0.00  0.00    +0.000 N 
ATOM      3  C   UNL     1     -53.364 -42.019 -63.779  0.00  0.00    +0.000 A 
ATOM      4  C   UNL     1     -52.169 -41.706 -64.454  0.00  0.00    +0.000 A 
ATOM      5 BR   UNL     1     -51.970 -40.058 -65.372  0.00  0.00    +0.000 Br
ATOM      6  C   UNL     1     -51.110 -42.618 -64.503  0.00  0.00    +0.000 A 
ATOM      7  C   UNL     1     -51.233 -43.858 -63.883  0.00  0.00    +0.000 A 
ATOM      8  C   UNL     1     -52.421 -44.194 -63.209  0.00  0.00    +0.000 A 
ATOM      9 CL   UNL     1     -52.483 -45.785 -62.541  0.00  0.00    +0.000 Cl
ATOM     10  C   UNL     1     -53.487 -43.271 -63.153  0.00  0.00    +0.000 A 
ATOM     11  C   UNL     1     -54.767 -43.516 -62.441  0.00  0.00    +0.000 A 
ATOM     12  O   UNL     1     -54.814 -44.328 -61.522  0.00  0.00    +0.000 OA
ATOM     13  C   UNL     1     -56.001 -42.724 -62.866  0.00  0.00    +0.000 A 
ATOM     14  H   UNL     1     -54.359 -40.257 -64.246  0.00  0.00    +0.000 HD
ENDROOT
BRANCH   1  15
ATOM     15  S   UNL     1     -56.945 -40.274 -63.957  0.00  0.00    +0.000 S 
ATOM     16  O   UNL     1     -56.220 -39.536 -65.050  0.00  0.00    +0.000 OA
BRANCH  15  17
ATOM     17  C   UNL     1     -57.137 -39.151 -62.531  0.00  0.00    +0.000 C 
BRANCH  17  21
ATOM     18  C   UNL     1     -54.532 -34.688 -62.836  0.00  0.00    +0.000 C 
ATOM     19  C   UNL     1     -55.102 -36.043 -62.669  0.00  0.00    +0.000 A 
ATOM     20  C   UNL     1     -56.352 -36.599 -62.818  0.00  0.00    +0.000 A 
ATOM     21  C   UNL     1     -56.181 -37.981 -62.519  0.00  0.00    +0.000 A 
ATOM     22  N   UNL     1     -54.900 -38.221 -62.190  0.00  0.00    +0.000 NA
ATOM     23  O   UNL     1     -54.233 -37.014 -62.288  0.00  0.00    +0.000 OA
ENDBRANCH  17  21
ENDBRANCH  15  17
ENDBRANCH   1  15
BRANCH  13  24
ATOM     24  C   UNL     1     -57.337 -43.415 -62.711  0.00  0.00    +0.000 C 
ATOM     25  O   UNL     1     -57.716 -44.226 -63.555  0.00  0.00    +0.000 OA
BRANCH  24  26
ATOM     26  C   UNL     1     -58.258 -43.063 -61.542  0.00  0.00    +0.000 C 
ATOM     27  C   UNL     1     -57.518 -42.296 -60.449  0.00  0.00    +0.000 C 
ATOM     28  C   UNL     1     -59.490 -42.277 -62.001  0.00  0.00    +0.000 C 
ENDBRANCH  24  26
ENDBRANCH  13  24
TORSDOF 5
ENDMDL
MODEL 3
REMARK VINA RESULT:    -7.141      2.825      4.032
REMARK INTER + INTRA:         -10.102
REMARK INTER:                  -9.023
REMARK INTRA:                  -1.079
REMARK UNBOUND:                -0.874
REMARK  Name = 
REMARK  8 active torsions:
REMARK  status: ('A' for Active; 'I' for Inactive)
REMARK    1  A    between atoms: C_1  and  C_2
REMARK    2  A    between atoms: C_4  and  C_5
REMARK    3  A    between atoms: C_5  and  S_6
REMARK    4  A    between atoms: S_6  and  C_8
REMARK    5  A    between atoms: C_20  and  C_21
REMARK    6  A    between atoms: C_21  and  C_23
REMARK    7  A    between atoms: C_23  and  C_24
REMARK    8  A    between atoms: C_23  and  C_25
REMARK                            x       y       z     vdW  Elec       q    Type
REMARK                         _______ _______ _______ _____ _____    ______ ____
ROOT
ATOM      1  C   UNL     1     -55.661 -42.288 -77.336  0.00  0.00    +0.000 A 
ATOM      2  N   UNL     1     -54.948 -41.099 -77.215  0.00  0.00    +0.000 N 
ATOM      3  C   UNL     1     -53.604 -41.083 -76.797  0.00  0.00    +0.000 A 
ATOM      4  C   UNL     1     -52.751 -39.994 -77.058  0.00  0.00    +0.000 A 
ATOM      5 BR   UNL     1     -53.323 -38.544 -78.138  0.00  0.00    +0.000 Br
ATOM      6  C   UNL     1     -51.443 -39.970 -76.564  0.00  0.00    +0.000 A 
ATOM      7  C   UNL     1     -50.968 -41.036 -75.806  0.00  0.00    +0.000 A 
ATOM      8  C   UNL     1     -51.801 -42.138 -75.540  0.00  0.00    +0.000 A 
ATOM      9 CL   UNL     1     -51.078 -43.430 -74.652  0.00  0.00    +0.000 Cl
ATOM     10  C   UNL     1     -53.123 -42.159 -76.033  0.00  0.00    +0.000 A 
ATOM     11  C   UNL     1     -54.090 -43.258 -75.780  0.00  0.00    +0.000 A 
ATOM     12  O   UNL     1     -53.953 -43.985 -74.801  0.00  0.00    +0.000 OA
ATOM     13  C   UNL     1     -55.256 -43.439 -76.748  0.00  0.00    +0.000 A 
ATOM     14  H   UNL     1     -55.217 -40.380 -77.902  0.00  0.00    +0.000 HD
ENDROOT
BRANCH   1  15
ATOM     15  S   UNL     1     -57.037 -42.128 -78.536  0.00  0.00    +0.000 S 
ATOM     16  O   UNL     1     -56.432 -41.355 -79.676  0.00  0.00    +0.000 OA
BRANCH  15  17
ATOM     17  C   UNL     1     -58.224 -41.045 -77.669  0.00  0.00    +0.000 C 
BRANCH  17  21
ATOM     18  C   UNL     1     -58.005 -41.136 -72.498  0.00  0.00    +0.000 C 
ATOM     19  C   UNL     1     -58.190 -41.276 -73.959  0.00  0.00    +0.000 A 
ATOM     20  C   UNL     1     -57.840 -40.530 -75.061  0.00  0.00    +0.000 A 
ATOM     21  C   UNL     1     -58.313 -41.277 -76.179  0.00  0.00    +0.000 A 
ATOM     22  N   UNL     1     -58.929 -42.393 -75.753  0.00  0.00    +0.000 NA
ATOM     23  O   UNL     1     -58.847 -42.389 -74.374  0.00  0.00    +0.000 OA
ENDBRANCH  17  21
ENDBRANCH  15  17
ENDBRANCH   1  15
BRANCH  13  24
ATOM     24  C   UNL     1     -55.763 -44.851 -76.945  0.00  0.00    +0.000 C 
ATOM     25  O   UNL     1     -56.944 -45.120 -76.731  0.00  0.00    +0.000 OA
BRANCH  24  26
ATOM     26  C   UNL     1     -54.799 -45.968 -77.346  0.00  0.00    +0.000 C 
ATOM     27  C   UNL     1     -54.726 -47.062 -76.283  0.00  0.00    +0.000 C 
ATOM     28  C   UNL     1     -55.159 -46.573 -78.706  0.00  0.00    +0.000 C 
ENDBRANCH  24  26
ENDBRANCH  13  24
TORSDOF 5
ENDMDL
MODEL 4
REMARK VINA RESULT:    -6.793      4.505      6.047
REMARK INTER + INTRA:          -9.652
REMARK INTER:                  -8.774
REMARK INTRA:                  -0.878
REMARK UNBOUND:                -0.874
REMARK  Name = 
REMARK  8 active torsions:
REMARK  status: ('A' for Active; 'I' for Inactive)
REMARK    1  A    between atoms: C_1  and  C_2
REMARK    2  A    between atoms: C_4  and  C_5
REMARK    3  A    between atoms: C_5  and  S_6
REMARK    4  A    between atoms: S_6  and  C_8
REMARK    5  A    between atoms: C_20  and  C_21
REMARK    6  A    between atoms: C_21  and  C_23
REMARK    7  A    between atoms: C_23  and  C_24
REMARK    8  A    between atoms: C_23  and  C_25
REMARK                            x       y       z     vdW  Elec       q    Type
REMARK                         _______ _______ _______ _____ _____    ______ ____
ROOT
ATOM      1  C   UNL     1     -54.186 -43.090 -78.183  0.00  0.00    +0.000 A 
ATOM      2  N   UNL     1     -54.068 -43.832 -77.012  0.00  0.00    +0.000 N 
ATOM      3  C   UNL     1     -54.572 -45.144 -76.914  0.00  0.00    +0.000 A 
ATOM      4  C   UNL     1     -54.119 -46.049 -75.936  0.00  0.00    +0.000 A 
ATOM      5 BR   UNL     1     -52.677 -45.604 -74.787  0.00  0.00    +0.000 Br
ATOM      6  C   UNL     1     -54.691 -47.319 -75.812  0.00  0.00    +0.000 A 
ATOM      7  C   UNL     1     -55.721 -47.703 -76.666  0.00  0.00    +0.000 A 
ATOM      8  C   UNL     1     -56.183 -46.816 -77.655  0.00  0.00    +0.000 A 
ATOM      9 CL   UNL     1     -57.412 -47.430 -78.700  0.00  0.00    +0.000 Cl
ATOM     10  C   UNL     1     -55.610 -45.533 -77.776  0.00  0.00    +0.000 A 
ATOM     11  C   UNL     1     -56.048 -44.513 -78.764  0.00  0.00    +0.000 A 
ATOM     12  O   UNL     1     -57.183 -44.556 -79.230  0.00  0.00    +0.000 OA
ATOM     13  C   UNL     1     -55.067 -43.414 -79.160  0.00  0.00    +0.000 A 
ATOM     14  H   UNL     1     -53.208 -43.638 -76.480  0.00  0.00    +0.000 HD
ENDROOT
BRANCH   1  15
ATOM     15  S   UNL     1     -52.882 -41.809 -78.302  0.00  0.00    +0.000 S 
ATOM     16  O   UNL     1     -52.015 -42.282 -79.437  0.00  0.00    +0.000 OA
BRANCH  15  17
ATOM     17  C   UNL     1     -51.954 -42.010 -76.743  0.00  0.00    +0.000 C 
BRANCH  17  21
ATOM     18  C   UNL     1     -48.859 -38.333 -74.819  0.00  0.00    +0.000 C 
ATOM     19  C   UNL     1     -49.859 -39.228 -75.442  0.00  0.00    +0.000 A 
ATOM     20  C   UNL     1     -49.962 -40.586 -75.641  0.00  0.00    +0.000 A 
ATOM     21  C   UNL     1     -51.218 -40.772 -76.286  0.00  0.00    +0.000 A 
ATOM     22  N   UNL     1     -51.814 -39.582 -76.475  0.00  0.00    +0.000 NA
ATOM     23  O   UNL     1     -50.968 -38.627 -75.946  0.00  0.00    +0.000 OA
ENDBRANCH  17  21
ENDBRANCH  15  17
ENDBRANCH   1  15
BRANCH  13  24
ATOM     24  C   UNL     1     -55.183 -42.875 -80.569  0.00  0.00    +0.000 C 
ATOM     25  O   UNL     1     -54.734 -43.519 -81.516  0.00  0.00    +0.000 OA
BRANCH  24  26
ATOM     26  C   UNL     1     -55.797 -41.498 -80.821  0.00  0.00    +0.000 C 
ATOM     27  C   UNL     1     -54.763 -40.504 -81.345  0.00  0.00    +0.000 C 
ATOM     28  C   UNL     1     -56.994 -41.571 -81.773  0.00  0.00    +0.000 C 
ENDBRANCH  24  26
ENDBRANCH  13  24
TORSDOF 5
ENDMDL
MODEL 5
REMARK VINA RESULT:    -6.775      3.901      5.015
REMARK INTER + INTRA:          -9.629
REMARK INTER:                  -8.447
REMARK INTRA:                  -1.182
REMARK UNBOUND:                -0.874
REMARK  Name = 
REMARK  8 active torsions:
REMARK  status: ('A' for Active; 'I' for Inactive)
REMARK    1  A    between atoms: C_1  and  C_2
REMARK    2  A    between atoms: C_4  and  C_5
REMARK    3  A    between atoms: C_5  and  S_6
REMARK    4  A    between atoms: S_6  and  C_8
REMARK    5  A    between atoms: C_20  and  C_21
REMARK    6  A    between atoms: C_21  and  C_23
REMARK    7  A    between atoms: C_23  and  C_24
REMARK    8  A    between atoms: C_23  and  C_25
REMARK                            x       y       z     vdW  Elec       q    Type
REMARK                         _______ _______ _______ _____ _____    ______ ____
ROOT
ATOM      1  C   UNL     1     -55.770 -41.801 -79.181  0.00  0.00    +0.000 A 
ATOM      2  N   UNL     1     -55.647 -41.074 -80.361  0.00  0.00    +0.000 N 
ATOM      3  C   UNL     1     -54.592 -41.306 -81.265  0.00  0.00    +0.000 A 
ATOM      4  C   UNL     1     -54.660 -40.911 -82.614  0.00  0.00    +0.000 A 
ATOM      5 BR   UNL     1     -56.255 -40.182 -83.337  0.00  0.00    +0.000 Br
ATOM      6  C   UNL     1     -53.569 -41.083 -83.470  0.00  0.00    +0.000 A 
ATOM      7  C   UNL     1     -52.395 -41.657 -82.991  0.00  0.00    +0.000 A 
ATOM      8  C   UNL     1     -52.308 -42.066 -81.648  0.00  0.00    +0.000 A 
ATOM      9 CL   UNL     1     -50.829 -42.830 -81.189  0.00  0.00    +0.000 Cl
ATOM     10  C   UNL     1     -53.407 -41.886 -80.783  0.00  0.00    +0.000 A 
ATOM     11  C   UNL     1     -53.404 -42.254 -79.343  0.00  0.00    +0.000 A 
ATOM     12  O   UNL     1     -52.344 -42.330 -78.730  0.00  0.00    +0.000 OA
ATOM     13  C   UNL     1     -54.742 -42.507 -78.653  0.00  0.00    +0.000 A 
ATOM     14  H   UNL     1     -56.547 -40.800 -80.778  0.00  0.00    +0.000 HD
ENDROOT
BRANCH   1  15
ATOM     15  S   UNL     1     -57.507 -41.844 -78.597  0.00  0.00    +0.000 S 
ATOM     16  O   UNL     1     -58.302 -41.431 -79.805  0.00  0.00    +0.000 OA
BRANCH  15  17
ATOM     17  C   UNL     1     -57.570 -40.493 -77.372  0.00  0.00    +0.000 C 
BRANCH  17  21
ATOM     18  C   UNL     1     -58.521 -41.390 -72.363  0.00  0.00    +0.000 C 
ATOM     19  C   UNL     1     -58.403 -41.267 -73.832  0.00  0.00    +0.000 A 
ATOM     20  C   UNL     1     -57.678 -40.470 -74.688  0.00  0.00    +0.000 A 
ATOM     21  C   UNL     1     -58.030 -40.914 -75.996  0.00  0.00    +0.000 A 
ATOM     22  N   UNL     1     -58.933 -41.906 -75.912  0.00  0.00    +0.000 NA
ATOM     23  O   UNL     1     -59.158 -42.125 -74.566  0.00  0.00    +0.000 OA
ENDBRANCH  17  21
ENDBRANCH  15  17
ENDBRANCH   1  15
BRANCH  13  24
ATOM     24  C   UNL     1     -54.745 -43.518 -77.528  0.00  0.00    +0.000 C 
ATOM     25  O   UNL     1     -54.749 -44.722 -77.778  0.00  0.00    +0.000 OA
BRANCH  24  26
ATOM     26  C   UNL     1     -54.810 -43.053 -76.072  0.00  0.00    +0.000 C 
ATOM     27  C   UNL     1     -55.892 -43.792 -75.290  0.00  0.00    +0.000 C 
ATOM     28  C   UNL     1     -53.458 -43.189 -75.367  0.00  0.00    +0.000 C 
ENDBRANCH  24  26
ENDBRANCH  13  24
TORSDOF 5
ENDMDL
MODEL 6
REMARK VINA RESULT:    -6.579      3.408      5.610
REMARK INTER + INTRA:          -9.376
REMARK INTER:                  -8.551
REMARK INTRA:                  -0.825
REMARK UNBOUND:                -0.874
REMARK  Name = 
REMARK  8 active torsions:
REMARK  status: ('A' for Active; 'I' for Inactive)
REMARK    1  A    between atoms: C_1  and  C_2
REMARK    2  A    between atoms: C_4  and  C_5
REMARK    3  A    between atoms: C_5  and  S_6
REMARK    4  A    between atoms: S_6  and  C_8
REMARK    5  A    between atoms: C_20  and  C_21
REMARK    6  A    between atoms: C_21  and  C_23
REMARK    7  A    between atoms: C_23  and  C_24
REMARK    8  A    between atoms: C_23  and  C_25
REMARK                            x       y       z     vdW  Elec       q    Type
REMARK                         _______ _______ _______ _____ _____    ______ ____
ROOT
ATOM      1  C   UNL     1     -57.872 -43.145 -76.982  0.00  0.00    +0.000 A 
ATOM      2  N   UNL     1     -57.403 -44.373 -77.439  0.00  0.00    +0.000 N 
ATOM      3  C   UNL     1     -56.295 -45.008 -76.844  0.00  0.00    +0.000 A 
ATOM      4  C   UNL     1     -56.058 -46.388 -76.986  0.00  0.00    +0.000 A 
ATOM      5 BR   UNL     1     -57.315 -47.510 -77.857  0.00  0.00    +0.000 Br
ATOM      6  C   UNL     1     -54.909 -46.979 -76.451  0.00  0.00    +0.000 A 
ATOM      7  C   UNL     1     -53.984 -46.199 -75.763  0.00  0.00    +0.000 A 
ATOM      8  C   UNL     1     -54.206 -44.819 -75.604  0.00  0.00    +0.000 A 
ATOM      9 CL   UNL     1     -53.026 -43.971 -74.671  0.00  0.00    +0.000 Cl
ATOM     10  C   UNL     1     -55.361 -44.222 -76.149  0.00  0.00    +0.000 A 
ATOM     11  C   UNL     1     -55.671 -42.772 -76.065  0.00  0.00    +0.000 A 
ATOM     12  O   UNL     1     -54.766 -41.959 -75.903  0.00  0.00    +0.000 OA
ATOM     13  C   UNL     1     -57.124 -42.327 -76.205  0.00  0.00    +0.000 A 
ATOM     14  H   UNL     1     -58.142 -44.995 -77.797  0.00  0.00    +0.000 HD
ENDROOT
BRANCH   1  15
ATOM     15  S   UNL     1     -59.645 -42.912 -77.382  0.00  0.00    +0.000 S 
ATOM     16  O   UNL     1     -60.160 -44.315 -77.563  0.00  0.00    +0.000 OA
BRANCH  15  17
ATOM     17  C   UNL     1     -59.604 -42.097 -79.014  0.00  0.00    +0.000 C 
BRANCH  17  21
ATOM     18  C   UNL     1     -61.732 -37.382 -78.821  0.00  0.00    +0.000 C 
ATOM     19  C   UNL     1     -61.288 -38.783 -78.991  0.00  0.00    +0.000 A 
ATOM     20  C   UNL     1     -60.152 -39.490 -78.670  0.00  0.00    +0.000 A 
ATOM     21  C   UNL     1     -60.411 -40.823 -79.101  0.00  0.00    +0.000 A 
ATOM     22  N   UNL     1     -61.629 -40.890 -79.667  0.00  0.00    +0.000 NA
ATOM     23  O   UNL     1     -62.170 -39.621 -79.593  0.00  0.00    +0.000 OA
ENDBRANCH  17  21
ENDBRANCH  15  17
ENDBRANCH   1  15
BRANCH  13  24
ATOM     24  C   UNL     1     -57.531 -41.086 -75.442  0.00  0.00    +0.000 C 
ATOM     25  O   UNL     1     -57.485 -39.983 -75.986  0.00  0.00    +0.000 OA
BRANCH  24  26
ATOM     26  C   UNL     1     -57.939 -41.181 -73.972  0.00  0.00    +0.000 C 
ATOM     27  C   UNL     1     -59.012 -42.244 -73.750  0.00  0.00    +0.000 C 
ATOM     28  C   UNL     1     -56.737 -41.442 -73.060  0.00  0.00    +0.000 C 
ENDBRANCH  24  26
ENDBRANCH  13  24
TORSDOF 5
ENDMDL
MODEL 7
REMARK VINA RESULT:    -6.469      4.031      6.333
REMARK INTER + INTRA:          -9.234
REMARK INTER:                  -8.042
REMARK INTRA:                  -1.192
REMARK UNBOUND:                -0.874
REMARK  Name = 
REMARK  8 active torsions:
REMARK  status: ('A' for Active; 'I' for Inactive)
REMARK    1  A    between atoms: C_1  and  C_2
REMARK    2  A    between atoms: C_4  and  C_5
REMARK    3  A    between atoms: C_5  and  S_6
REMARK    4  A    between atoms: S_6  and  C_8
REMARK    5  A    between atoms: C_20  and  C_21
REMARK    6  A    between atoms: C_21  and  C_23
REMARK    7  A    between atoms: C_23  and  C_24
REMARK    8  A    between atoms: C_23  and  C_25
REMARK                            x       y       z     vdW  Elec       q    Type
REMARK                         _______ _______ _______ _____ _____    ______ ____
ROOT
ATOM      1  C   UNL     1     -55.259 -43.142 -77.787  0.00  0.00    +0.000 A 
ATOM      2  N   UNL     1     -55.253 -43.941 -78.927  0.00  0.00    +0.000 N 
ATOM      3  C   UNL     1     -55.438 -45.335 -78.852  0.00  0.00    +0.000 A 
ATOM      4  C   UNL     1     -55.848 -46.097 -79.963  0.00  0.00    +0.000 A 
ATOM      5 BR   UNL     1     -56.336 -45.259 -81.594  0.00  0.00    +0.000 Br
ATOM      6  C   UNL     1     -55.949 -47.489 -79.883  0.00  0.00    +0.000 A 
ATOM      7  C   UNL     1     -55.646 -48.139 -78.690  0.00  0.00    +0.000 A 
ATOM      8  C   UNL     1     -55.241 -47.396 -77.566  0.00  0.00    +0.000 A 
ATOM      9 CL   UNL     1     -54.962 -48.305 -76.125  0.00  0.00    +0.000 Cl
ATOM     10  C   UNL     1     -55.133 -45.992 -77.649  0.00  0.00    +0.000 A 
ATOM     11  C   UNL     1     -54.684 -45.122 -76.532  0.00  0.00    +0.000 A 
ATOM     12  O   UNL     1     -53.985 -45.585 -75.635  0.00  0.00    +0.000 OA
ATOM     13  C   UNL     1     -55.091 -43.652 -76.544  0.00  0.00    +0.000 A 
ATOM     14  H   UNL     1     -55.636 -43.478 -79.763  0.00  0.00    +0.000 HD
ENDROOT
BRANCH   1  15
ATOM     15  S   UNL     1     -55.729 -41.415 -78.180  0.00  0.00    +0.000 S 
ATOM     16  O   UNL     1     -56.789 -41.563 -79.238  0.00  0.00    +0.000 OA
BRANCH  15  17
ATOM     17  C   UNL     1     -54.225 -40.738 -78.960  0.00  0.00    +0.000 C 
BRANCH  17  21
ATOM     18  C   UNL     1     -50.242 -40.672 -75.653  0.00  0.00    +0.000 C 
ATOM     19  C   UNL     1     -51.277 -40.840 -76.697  0.00  0.00    +0.000 A 
ATOM     20  C   UNL     1     -52.542 -40.340 -76.904  0.00  0.00    +0.000 A 
ATOM     21  C   UNL     1     -52.965 -40.904 -78.143  0.00  0.00    +0.000 A 
ATOM     22  N   UNL     1     -52.005 -41.710 -78.627  0.00  0.00    +0.000 NA
ATOM     23  O   UNL     1     -50.957 -41.664 -77.727  0.00  0.00    +0.000 OA
ENDBRANCH  17  21
ENDBRANCH  15  17
ENDBRANCH   1  15
BRANCH  13  24
ATOM     24  C   UNL     1     -55.288 -42.990 -75.198  0.00  0.00    +0.000 C 
ATOM     25  O   UNL     1     -54.373 -42.346 -74.686  0.00  0.00    +0.000 OA
BRANCH  24  26
ATOM     26  C   UNL     1     -56.598 -43.172 -74.431  0.00  0.00    +0.000 C 
ATOM     27  C   UNL     1     -56.608 -42.375 -73.130  0.00  0.00    +0.000 C 
ATOM     28  C   UNL     1     -57.816 -42.809 -75.286  0.00  0.00    +0.000 C 
ENDBRANCH  24  26
ENDBRANCH  13  24
TORSDOF 5
ENDMDL
MODEL 8
REMARK VINA RESULT:    -6.387     12.520     13.632
REMARK INTER + INTRA:          -9.127
REMARK INTER:                  -8.520
REMARK INTRA:                  -0.607
REMARK UNBOUND:                -0.874
REMARK  Name = 
REMARK  8 active torsions:
REMARK  status: ('A' for Active; 'I' for Inactive)
REMARK    1  A    between atoms: C_1  and  C_2
REMARK    2  A    between atoms: C_4  and  C_5
REMARK    3  A    between atoms: C_5  and  S_6
REMARK    4  A    between atoms: S_6  and  C_8
REMARK    5  A    between atoms: C_20  and  C_21
REMARK    6  A    between atoms: C_21  and  C_23
REMARK    7  A    between atoms: C_23  and  C_24
REMARK    8  A    between atoms: C_23  and  C_25
REMARK                            x       y       z     vdW  Elec       q    Type
REMARK                         _______ _______ _______ _____ _____    ______ ____
ROOT
ATOM      1  C   UNL     1     -56.065 -41.528 -63.514  0.00  0.00    +0.000 A 
ATOM      2  N   UNL     1     -55.187 -40.783 -64.294  0.00  0.00    +0.000 N 
ATOM      3  C   UNL     1     -54.863 -39.450 -63.974  0.00  0.00    +0.000 A 
ATOM      4  C   UNL     1     -53.704 -38.822 -64.467  0.00  0.00    +0.000 A 
ATOM      5 BR   UNL     1     -52.417 -39.793 -65.466  0.00  0.00    +0.000 Br
ATOM      6  C   UNL     1     -53.447 -37.474 -64.198  0.00  0.00    +0.000 A 
ATOM      7  C   UNL     1     -54.342 -36.737 -63.428  0.00  0.00    +0.000 A 
ATOM      8  C   UNL     1     -55.503 -37.348 -62.920  0.00  0.00    +0.000 A 
ATOM      9 CL   UNL     1     -56.500 -36.353 -61.922  0.00  0.00    +0.000 Cl
ATOM     10  C   UNL     1     -55.766 -38.705 -63.198  0.00  0.00    +0.000 A 
ATOM     11  C   UNL     1     -56.977 -39.432 -62.737  0.00  0.00    +0.000 A 
ATOM     12  O   UNL     1     -58.001 -38.812 -62.466  0.00  0.00    +0.000 OA
ATOM     13  C   UNL     1     -56.918 -40.953 -62.632  0.00  0.00    +0.000 A 
ATOM     14  H   UNL     1     -54.435 -41.340 -64.723  0.00  0.00    +0.000 HD
ENDROOT
BRANCH   1  15
ATOM     15  S   UNL     1     -55.754 -43.326 -63.682  0.00  0.00    +0.000 S 
ATOM     16  O   UNL     1     -57.009 -43.960 -63.145  0.00  0.00    +0.000 OA
BRANCH  15  17
ATOM     17  C   UNL     1     -54.400 -43.630 -62.497  0.00  0.00    +0.000 C 
BRANCH  17  21
ATOM     18  C   UNL     1     -49.776 -45.124 -64.283  0.00  0.00    +0.000 C 
ATOM     19  C   UNL     1     -51.064 -44.520 -63.875  0.00  0.00    +0.000 A 
ATOM     20  C   UNL     1     -52.179 -44.965 -63.203  0.00  0.00    +0.000 A 
ATOM     21  C   UNL     1     -53.044 -43.835 -63.131  0.00  0.00    +0.000 A 
ATOM     22  N   UNL     1     -52.475 -42.786 -63.749  0.00  0.00    +0.000 NA
ATOM     23  O   UNL     1     -51.244 -43.215 -64.206  0.00  0.00    +0.000 OA
ENDBRANCH  17  21
ENDBRANCH  15  17
ENDBRANCH   1  15
BRANCH  13  24
ATOM     24  C   UNL     1     -57.769 -41.594 -61.559  0.00  0.00    +0.000 C 
ATOM     25  O   UNL     1     -57.252 -41.998 -60.518  0.00  0.00    +0.000 OA
BRANCH  24  26
ATOM     26  C   UNL     1     -59.267 -41.806 -61.784  0.00  0.00    +0.000 C 
ATOM     27  C   UNL     1     -59.629 -41.758 -63.266  0.00  0.00    +0.000 C 
ATOM     28  C   UNL     1     -59.760 -43.114 -61.159  0.00  0.00    +0.000 C 
ENDBRANCH  24  26
ENDBRANCH  13  24
TORSDOF 5
ENDMDL
MODEL 9
REMARK VINA RESULT:    -6.315      3.712      5.282
REMARK INTER + INTRA:          -9.034
REMARK INTER:                  -7.667
REMARK INTRA:                  -1.368
REMARK UNBOUND:                -0.874
REMARK  Name = 
REMARK  8 active torsions:
REMARK  status: ('A' for Active; 'I' for Inactive)
REMARK    1  A    between atoms: C_1  and  C_2
REMARK    2  A    between atoms: C_4  and  C_5
REMARK    3  A    between atoms: C_5  and  S_6
REMARK    4  A    between atoms: S_6  and  C_8
REMARK    5  A    between atoms: C_20  and  C_21
REMARK    6  A    between atoms: C_21  and  C_23
REMARK    7  A    between atoms: C_23  and  C_24
REMARK    8  A    between atoms: C_23  and  C_25
REMARK                            x       y       z     vdW  Elec       q    Type
REMARK                         _______ _______ _______ _____ _____    ______ ____
ROOT
ATOM      1  C   UNL     1     -54.337 -43.546 -77.005  0.00  0.00    +0.000 A 
ATOM      2  N   UNL     1     -54.929 -44.795 -76.846  0.00  0.00    +0.000 N 
ATOM      3  C   UNL     1     -55.024 -45.709 -77.914  0.00  0.00    +0.000 A 
ATOM      4  C   UNL     1     -55.221 -47.087 -77.705  0.00  0.00    +0.000 A 
ATOM      5 BR   UNL     1     -55.205 -47.821 -75.956  0.00  0.00    +0.000 Br
ATOM      6  C   UNL     1     -55.390 -47.960 -78.784  0.00  0.00    +0.000 A 
ATOM      7  C   UNL     1     -55.361 -47.470 -80.086  0.00  0.00    +0.000 A 
ATOM      8  C   UNL     1     -55.159 -46.097 -80.316  0.00  0.00    +0.000 A 
ATOM      9 CL   UNL     1     -55.071 -45.618 -81.973  0.00  0.00    +0.000 Cl
ATOM     10  C   UNL     1     -54.995 -45.214 -79.228  0.00  0.00    +0.000 A 
ATOM     11  C   UNL     1     -54.809 -43.747 -79.364  0.00  0.00    +0.000 A 
ATOM     12  O   UNL     1     -55.207 -43.167 -80.369  0.00  0.00    +0.000 OA
ATOM     13  C   UNL     1     -54.137 -42.989 -78.223  0.00  0.00    +0.000 A 
ATOM     14  H   UNL     1     -54.793 -45.205 -75.911  0.00  0.00    +0.000 HD
ENDROOT
BRANCH   1  15
ATOM     15  S   UNL     1     -53.695 -42.900 -75.415  0.00  0.00    +0.000 S 
ATOM     16  O   UNL     1     -53.048 -44.098 -74.774  0.00  0.00    +0.000 OA
BRANCH  15  17
ATOM     17  C   UNL     1     -55.211 -42.495 -74.484  0.00  0.00    +0.000 C 
BRANCH  17  21
ATOM     18  C   UNL     1     -58.849 -40.335 -77.469  0.00  0.00    +0.000 C 
ATOM     19  C   UNL     1     -57.925 -41.124 -76.625  0.00  0.00    +0.000 A 
ATOM     20  C   UNL     1     -56.678 -40.910 -76.082  0.00  0.00    +0.000 A 
ATOM     21  C   UNL     1     -56.388 -42.094 -75.343  0.00  0.00    +0.000 A 
ATOM     22  N   UNL     1     -57.403 -42.967 -75.464  0.00  0.00    +0.000 NA
ATOM     23  O   UNL     1     -58.356 -42.358 -76.258  0.00  0.00    +0.000 OA
ENDBRANCH  17  21
ENDBRANCH  15  17
ENDBRANCH   1  15
BRANCH  13  24
ATOM     24  C   UNL     1     -53.325 -41.770 -78.602  0.00  0.00    +0.000 C 
ATOM     25  O   UNL     1     -52.157 -41.893 -78.967  0.00  0.00    +0.000 OA
BRANCH  24  26
ATOM     26  C   UNL     1     -53.927 -40.370 -78.472  0.00  0.00    +0.000 C 
ATOM     27  C   UNL     1     -53.168 -39.520 -77.456  0.00  0.00    +0.000 C 
ATOM     28  C   UNL     1     -53.996 -39.649 -79.821  0.00  0.00    +0.000 C 
ENDBRANCH  24  26
ENDBRANCH  13  24
TORSDOF 5
ENDMDL
MODEL 10
REMARK VINA RESULT:    -6.123     20.316     24.124
REMARK INTER + INTRA:          -8.786
REMARK INTER:                  -7.751
REMARK INTRA:                  -1.036
REMARK UNBOUND:                -0.874
REMARK  Name = 
REMARK  8 active torsions:
REMARK  status: ('A' for Active; 'I' for Inactive)
REMARK    1  A    between atoms: C_1  and  C_2
REMARK    2  A    between atoms: C_4  and  C_5
REMARK    3  A    between atoms: C_5  and  S_6
REMARK    4  A    between atoms: S_6  and  C_8
REMARK    5  A    between atoms: C_20  and  C_21
REMARK    6  A    between atoms: C_21  and  C_23
REMARK    7  A    between atoms: C_23  and  C_24
REMARK    8  A    between atoms: C_23  and  C_25
REMARK                            x       y       z     vdW  Elec       q    Type
REMARK                         _______ _______ _______ _____ _____    ______ ____
ROOT
ATOM      1  C   UNL     1     -66.281 -48.431 -56.048  0.00  0.00    +0.000 A 
ATOM      2  N   UNL     1     -66.898 -48.051 -57.236  0.00  0.00    +0.000 N 
ATOM      3  C   UNL     1     -68.253 -48.343 -57.491  0.00  0.00    +0.000 A 
ATOM      4  C   UNL     1     -69.003 -47.638 -58.451  0.00  0.00    +0.000 A 
ATOM      5 BR   UNL     1     -68.272 -46.135 -59.349  0.00  0.00    +0.000 Br
ATOM      6  C   UNL     1     -70.322 -47.999 -58.740  0.00  0.00    +0.000 A 
ATOM      7  C   UNL     1     -70.912 -49.066 -58.069  0.00  0.00    +0.000 A 
ATOM      8  C   UNL     1     -70.183 -49.779 -57.100  0.00  0.00    +0.000 A 
ATOM      9 CL   UNL     1     -71.043 -51.034 -56.285  0.00  0.00    +0.000 Cl
ATOM     10  C   UNL     1     -68.849 -49.419 -56.814  0.00  0.00    +0.000 A 
ATOM     11  C   UNL     1     -67.985 -50.127 -55.835  0.00  0.00    +0.000 A 
ATOM     12  O   UNL     1     -68.219 -51.296 -55.541  0.00  0.00    +0.000 OA
ATOM     13  C   UNL     1     -66.802 -49.377 -55.231  0.00  0.00    +0.000 A 
ATOM     14  H   UNL     1     -66.546 -47.166 -57.625  0.00  0.00    +0.000 HD
ENDROOT
BRANCH   1  15
ATOM     15  S   UNL     1     -64.851 -47.353 -55.660  0.00  0.00    +0.000 S 
ATOM     16  O   UNL     1     -65.261 -46.655 -54.391  0.00  0.00    +0.000 OA
BRANCH  15  17
ATOM     17  C   UNL     1     -64.862 -46.136 -57.019  0.00  0.00    +0.000 C 
BRANCH  17  21
ATOM     18  C   UNL     1     -61.944 -47.073 -61.191  0.00  0.00    +0.000 C 
ATOM     19  C   UNL     1     -62.599 -46.777 -59.898  0.00  0.00    +0.000 A 
ATOM     20  C   UNL     1     -63.898 -46.586 -59.485  0.00  0.00    +0.000 A 
ATOM     21  C   UNL     1     -63.812 -46.368 -58.080  0.00  0.00    +0.000 A 
ATOM     22  N   UNL     1     -62.526 -46.407 -57.691  0.00  0.00    +0.000 NA
ATOM     23  O   UNL     1     -61.777 -46.665 -58.823  0.00  0.00    +0.000 OA
ENDBRANCH  17  21
ENDBRANCH  15  17
ENDBRANCH   1  15
BRANCH  13  24
ATOM     24  C   UNL     1     -66.405 -49.756 -53.821  0.00  0.00    +0.000 C 
ATOM     25  O   UNL     1     -67.051 -49.335 -52.863  0.00  0.00    +0.000 OA
BRANCH  24  26
ATOM     26  C   UNL     1     -65.161 -50.609 -53.571  0.00  0.00    +0.000 C 
ATOM     27  C   UNL     1     -64.134 -49.874 -52.714  0.00  0.00    +0.000 C 
ATOM     28  C   UNL     1     -65.510 -51.960 -52.941  0.00  0.00    +0.000 C 
ENDBRANCH  24  26
ENDBRANCH  13  24
TORSDOF 5
ENDMDL
MODEL 11
REMARK VINA RESULT:    -6.120      4.368      6.866
REMARK INTER + INTRA:          -8.782
REMARK INTER:                  -7.523
REMARK INTRA:                  -1.259
REMARK UNBOUND:                -0.874
REMARK  Name = 
REMARK  8 active torsions:
REMARK  status: ('A' for Active; 'I' for Inactive)
REMARK    1  A    between atoms: C_1  and  C_2
REMARK    2  A    between atoms: C_4  and  C_5
REMARK    3  A    between atoms: C_5  and  S_6
REMARK    4  A    between atoms: S_6  and  C_8
REMARK    5  A    between atoms: C_20  and  C_21
REMARK    6  A    between atoms: C_21  and  C_23
REMARK    7  A    between atoms: C_23  and  C_24
REMARK    8  A    between atoms: C_23  and  C_25
REMARK                            x       y       z     vdW  Elec       q    Type
REMARK                         _______ _______ _______ _____ _____    ______ ____
ROOT
ATOM      1  C   UNL     1     -55.515 -43.316 -78.328  0.00  0.00    +0.000 A 
ATOM      2  N   UNL     1     -55.496 -44.401 -79.199  0.00  0.00    +0.000 N 
ATOM      3  C   UNL     1     -55.562 -45.727 -78.728  0.00  0.00    +0.000 A 
ATOM      4  C   UNL     1     -55.959 -46.796 -79.554  0.00  0.00    +0.000 A 
ATOM      5 BR   UNL     1     -56.587 -46.485 -81.317  0.00  0.00    +0.000 Br
ATOM      6  C   UNL     1     -55.941 -48.112 -79.084  0.00  0.00    +0.000 A 
ATOM      7  C   UNL     1     -55.532 -48.379 -77.781  0.00  0.00    +0.000 A 
ATOM      8  C   UNL     1     -55.139 -47.324 -76.937  0.00  0.00    +0.000 A 
ATOM      9 CL   UNL     1     -54.720 -47.770 -75.322  0.00  0.00    +0.000 Cl
ATOM     10  C   UNL     1     -55.150 -45.997 -77.413  0.00  0.00    +0.000 A 
ATOM     11  C   UNL     1     -54.723 -44.820 -76.614  0.00  0.00    +0.000 A 
ATOM     12  O   UNL     1     -53.949 -44.964 -75.672  0.00  0.00    +0.000 OA
ATOM     13  C   UNL     1     -55.250 -43.442 -77.006  0.00  0.00    +0.000 A 
ATOM     14  H   UNL     1     -55.953 -44.219 -80.103  0.00  0.00    +0.000 HD
ENDROOT
BRANCH   1  15
ATOM     15  S   UNL     1     -56.143 -41.804 -79.152  0.00  0.00    +0.000 S 
ATOM     16  O   UNL     1     -56.446 -42.259 -80.554  0.00  0.00    +0.000 OA
BRANCH  15  17
ATOM     17  C   UNL     1     -54.681 -40.714 -79.200  0.00  0.00    +0.000 C 
BRANCH  17  21
ATOM     18  C   UNL     1     -50.887 -43.029 -81.856  0.00  0.00    +0.000 C 
ATOM     19  C   UNL     1     -51.835 -42.357 -80.941  0.00  0.00    +0.000 A 
ATOM     20  C   UNL     1     -53.101 -41.830 -81.064  0.00  0.00    +0.000 A 
ATOM     21  C   UNL     1     -53.435 -41.359 -79.761  0.00  0.00    +0.000 A 
ATOM     22  N   UNL     1     -52.409 -41.578 -78.921  0.00  0.00    +0.000 NA
ATOM     23  O   UNL     1     -51.419 -42.201 -79.658  0.00  0.00    +0.000 OA
ENDBRANCH  17  21
ENDBRANCH  15  17
ENDBRANCH   1  15
BRANCH  13  24
ATOM     24  C   UNL     1     -55.438 -42.443 -75.886  0.00  0.00    +0.000 C 
ATOM     25  O   UNL     1     -54.650 -41.508 -75.752  0.00  0.00    +0.000 OA
BRANCH  24  26
ATOM     26  C   UNL     1     -56.569 -42.622 -74.872  0.00  0.00    +0.000 C 
ATOM     27  C   UNL     1     -56.814 -41.349 -74.066  0.00  0.00    +0.000 C 
ATOM     28  C   UNL     1     -57.867 -43.087 -75.538  0.00  0.00    +0.000 C 
ENDBRANCH  24  26
ENDBRANCH  13  24
TORSDOF 5
ENDMDL
MODEL 12
REMARK VINA RESULT:    -6.084     22.345     26.074
REMARK INTER + INTRA:          -8.736
REMARK INTER:                  -7.853
REMARK INTRA:                  -0.883
REMARK UNBOUND:                -0.874
REMARK  Name = 
REMARK  8 active torsions:
REMARK  status: ('A' for Active; 'I' for Inactive)
REMARK    1  A    between atoms: C_1  and  C_2
REMARK    2  A    between atoms: C_4  and  C_5
REMARK    3  A    between atoms: C_5  and  S_6
REMARK    4  A    between atoms: S_6  and  C_8
REMARK    5  A    between atoms: C_20  and  C_21
REMARK    6  A    between atoms: C_21  and  C_23
REMARK    7  A    between atoms: C_23  and  C_24
REMARK    8  A    between atoms: C_23  and  C_25
REMARK                            x       y       z     vdW  Elec       q    Type
REMARK                         _______ _______ _______ _____ _____    ______ ____
ROOT
ATOM      1  C   UNL     1     -66.978 -49.802 -54.439  0.00  0.00    +0.000 A 
ATOM      2  N   UNL     1     -67.675 -50.689 -55.255  0.00  0.00    +0.000 N 
ATOM      3  C   UNL     1     -68.032 -51.977 -54.810  0.00  0.00    +0.000 A 
ATOM      4  C   UNL     1     -69.062 -52.720 -55.416  0.00  0.00    +0.000 A 
ATOM      5 BR   UNL     1     -70.148 -51.957 -56.771  0.00  0.00    +0.000 Br
ATOM      6  C   UNL     1     -69.343 -54.027 -55.006  0.00  0.00    +0.000 A 
ATOM      7  C   UNL     1     -68.601 -54.608 -53.982  0.00  0.00    +0.000 A 
ATOM      8  C   UNL     1     -67.571 -53.880 -53.359  0.00  0.00    +0.000 A 
ATOM      9 CL   UNL     1     -66.769 -54.679 -52.055  0.00  0.00    +0.000 Cl
ATOM     10  C   UNL     1     -67.283 -52.564 -53.777  0.00  0.00    +0.000 A 
ATOM     11  C   UNL     1     -66.198 -51.726 -53.206  0.00  0.00    +0.000 A 
ATOM     12  O   UNL     1     -65.235 -52.255 -52.659  0.00  0.00    +0.000 OA
ATOM     13  C   UNL     1     -66.302 -50.209 -53.338  0.00  0.00    +0.000 A 
ATOM     14  H   UNL     1     -68.340 -50.232 -55.895  0.00  0.00    +0.000 HD
ENDROOT
BRANCH   1  15
ATOM     15  S   UNL     1     -67.282 -48.062 -54.925  0.00  0.00    +0.000 S 
ATOM     16  O   UNL     1     -68.512 -47.681 -54.146  0.00  0.00    +0.000 OA
BRANCH  15  17
ATOM     17  C   UNL     1     -67.733 -48.191 -56.688  0.00  0.00    +0.000 C 
BRANCH  17  21
ATOM     18  C   UNL     1     -64.429 -47.297 -60.572  0.00  0.00    +0.000 C 
ATOM     19  C   UNL     1     -65.244 -47.439 -59.346  0.00  0.00    +0.000 A 
ATOM     20  C   UNL     1     -66.479 -47.972 -59.054  0.00  0.00    +0.000 A 
ATOM     21  C   UNL     1     -66.634 -47.797 -57.648  0.00  0.00    +0.000 A 
ATOM     22  N   UNL     1     -65.554 -47.175 -57.144  0.00  0.00    +0.000 NA
ATOM     23  O   UNL     1     -64.692 -46.958 -58.203  0.00  0.00    +0.000 OA
ENDBRANCH  17  21
ENDBRANCH  15  17
ENDBRANCH   1  15
BRANCH  13  24
ATOM     24  C   UNL     1     -65.687 -49.386 -52.229  0.00  0.00    +0.000 C 
ATOM     25  O   UNL     1     -66.364 -49.051 -51.258  0.00  0.00    +0.000 OA
BRANCH  24  26
ATOM     26  C   UNL     1     -64.238 -48.908 -52.333  0.00  0.00    +0.000 C 
ATOM     27  C   UNL     1     -63.641 -49.208 -53.706  0.00  0.00    +0.000 C 
ATOM     28  C   UNL     1     -64.102 -47.418 -52.009  0.00  0.00    +0.000 C 
ENDBRANCH  24  26
ENDBRANCH  13  24
TORSDOF 5
ENDMDL
MODEL 13
REMARK VINA RESULT:    -5.936     11.852     14.444
REMARK INTER + INTRA:          -8.545
REMARK INTER:                  -7.822
REMARK INTRA:                  -0.722
REMARK UNBOUND:                -0.874
REMARK  Name = 
REMARK  8 active torsions:
REMARK  status: ('A' for Active; 'I' for Inactive)
REMARK    1  A    between atoms: C_1  and  C_2
REMARK    2  A    between atoms: C_4  and  C_5
REMARK    3  A    between atoms: C_5  and  S_6
REMARK    4  A    between atoms: S_6  and  C_8
REMARK    5  A    between atoms: C_20  and  C_21
REMARK    6  A    between atoms: C_21  and  C_23
REMARK    7  A    between atoms: C_23  and  C_24
REMARK    8  A    between atoms: C_23  and  C_25
REMARK                            x       y       z     vdW  Elec       q    Type
REMARK                         _______ _______ _______ _____ _____    ______ ____
ROOT
ATOM      1  C   UNL     1     -56.313 -40.727 -61.716  0.00  0.00    +0.000 A 
ATOM      2  N   UNL     1     -55.547 -40.034 -60.784  0.00  0.00    +0.000 N 
ATOM      3  C   UNL     1     -55.431 -38.630 -60.821  0.00  0.00    +0.000 A 
ATOM      4  C   UNL     1     -55.034 -37.882 -59.697  0.00  0.00    +0.000 A 
ATOM      5 BR   UNL     1     -54.786 -38.712 -58.010  0.00  0.00    +0.000 Br
ATOM      6  C   UNL     1     -54.851 -36.498 -59.783  0.00  0.00    +0.000 A 
ATOM      7  C   UNL     1     -55.068 -35.843 -60.991  0.00  0.00    +0.000 A 
ATOM      8  C   UNL     1     -55.473 -36.571 -62.124  0.00  0.00    +0.000 A 
ATOM      9 CL   UNL     1     -55.780 -35.640 -63.545  0.00  0.00    +0.000 Cl
ATOM     10  C   UNL     1     -55.650 -37.968 -62.040  0.00  0.00    +0.000 A 
ATOM     11  C   UNL     1     -56.043 -38.830 -63.184  0.00  0.00    +0.000 A 
ATOM     12  O   UNL     1     -55.822 -38.463 -64.334  0.00  0.00    +0.000 OA
ATOM     13  C   UNL     1     -56.699 -40.176 -62.891  0.00  0.00    +0.000 A 
ATOM     14  H   UNL     1     -55.538 -40.463 -59.849  0.00  0.00    +0.000 HD
ENDROOT
BRANCH   1  15
ATOM     15  S   UNL     1     -56.882 -42.338 -61.052  0.00  0.00    +0.000 S 
ATOM     16  O   UNL     1     -57.844 -41.956 -59.960  0.00  0.00    +0.000 OA
BRANCH  15  17
ATOM     17  C   UNL     1     -55.379 -43.029 -60.283  0.00  0.00    +0.000 C 
BRANCH  17  21
ATOM     18  C   UNL     1     -52.305 -46.382 -62.756  0.00  0.00    +0.000 C 
ATOM     19  C   UNL     1     -53.199 -45.326 -62.232  0.00  0.00    +0.000 A 
ATOM     20  C   UNL     1     -53.849 -45.103 -61.039  0.00  0.00    +0.000 A 
ATOM     21  C   UNL     1     -54.525 -43.861 -61.211  0.00  0.00    +0.000 A 
ATOM     22  N   UNL     1     -54.301 -43.389 -62.450  0.00  0.00    +0.000 NA
ATOM     23  O   UNL     1     -53.474 -44.301 -63.078  0.00  0.00    +0.000 OA
ENDBRANCH  17  21
ENDBRANCH  15  17
ENDBRANCH   1  15
BRANCH  13  24
ATOM     24  C   UNL     1     -57.699 -40.680 -63.908  0.00  0.00    +0.000 C 
ATOM     25  O   UNL     1     -58.886 -40.794 -63.606  0.00  0.00    +0.000 OA
BRANCH  24  26
ATOM     26  C   UNL     1     -57.233 -41.115 -65.299  0.00  0.00    +0.000 C 
ATOM     27  C   UNL     1     -55.950 -41.939 -65.234  0.00  0.00    +0.000 C 
ATOM     28  C   UNL     1     -58.322 -41.885 -66.052  0.00  0.00    +0.000 C 
ENDBRANCH  24  26
ENDBRANCH  13  24
TORSDOF 5
ENDMDL
MODEL 14
REMARK VINA RESULT:    -5.798      3.908      6.722
REMARK INTER + INTRA:          -8.366
REMARK INTER:                  -7.334
REMARK INTRA:                  -1.032
REMARK UNBOUND:                -0.874
REMARK  Name = 
REMARK  8 active torsions:
REMARK  status: ('A' for Active; 'I' for Inactive)
REMARK    1  A    between atoms: C_1  and  C_2
REMARK    2  A    between atoms: C_4  and  C_5
REMARK    3  A    between atoms: C_5  and  S_6
REMARK    4  A    between atoms: S_6  and  C_8
REMARK    5  A    between atoms: C_20  and  C_21
REMARK    6  A    between atoms: C_21  and  C_23
REMARK    7  A    between atoms: C_23  and  C_24
REMARK    8  A    between atoms: C_23  and  C_25
REMARK                            x       y       z     vdW  Elec       q    Type
REMARK                         _______ _______ _______ _____ _____    ______ ____
ROOT
ATOM      1  C   UNL     1     -55.033 -43.347 -77.169  0.00  0.00    +0.000 A 
ATOM      2  N   UNL     1     -56.393 -43.613 -77.042  0.00  0.00    +0.000 N 
ATOM      3  C   UNL     1     -57.177 -42.996 -76.049  0.00  0.00    +0.000 A 
ATOM      4  C   UNL     1     -58.579 -42.911 -76.146  0.00  0.00    +0.000 A 
ATOM      5 BR   UNL     1     -59.485 -43.484 -77.710  0.00  0.00    +0.000 Br
ATOM      6  C   UNL     1     -59.339 -42.362 -75.109  0.00  0.00    +0.000 A 
ATOM      7  C   UNL     1     -58.710 -41.886 -73.963  0.00  0.00    +0.000 A 
ATOM      8  C   UNL     1     -57.309 -41.955 -73.849  0.00  0.00    +0.000 A 
ATOM      9 CL   UNL     1     -56.638 -41.268 -72.414  0.00  0.00    +0.000 Cl
ATOM     10  C   UNL     1     -56.543 -42.515 -74.892  0.00  0.00    +0.000 A 
ATOM     11  C   UNL     1     -55.065 -42.662 -74.854  0.00  0.00    +0.000 A 
ATOM     12  O   UNL     1     -54.478 -42.708 -73.777  0.00  0.00    +0.000 OA
ATOM     13  C   UNL     1     -54.310 -42.777 -76.176  0.00  0.00    +0.000 A 
ATOM     14  H   UNL     1     -56.866 -43.806 -77.936  0.00  0.00    +0.000 HD
ENDROOT
BRANCH   1  15
ATOM     15  S   UNL     1     -54.444 -43.657 -78.877  0.00  0.00    +0.000 S 
ATOM     16  O   UNL     1     -54.505 -42.303 -79.530  0.00  0.00    +0.000 OA
BRANCH  15  17
ATOM     17  C   UNL     1     -55.759 -44.702 -79.590  0.00  0.00    +0.000 C 
BRANCH  17  21
ATOM     18  C   UNL     1     -54.980 -49.820 -79.553  0.00  0.00    +0.000 C 
ATOM     19  C   UNL     1     -55.249 -48.378 -79.362  0.00  0.00    +0.000 A 
ATOM     20  C   UNL     1     -55.109 -47.250 -80.139  0.00  0.00    +0.000 A 
ATOM     21  C   UNL     1     -55.596 -46.181 -79.331  0.00  0.00    +0.000 A 
ATOM     22  N   UNL     1     -55.981 -46.655 -78.134  0.00  0.00    +0.000 NA
ATOM     23  O   UNL     1     -55.767 -48.020 -78.160  0.00  0.00    +0.000 OA
ENDBRANCH  17  21
ENDBRANCH  15  17
ENDBRANCH   1  15
BRANCH  13  24
ATOM     24  C   UNL     1     -52.906 -42.217 -76.207  0.00  0.00    +0.000 C 
ATOM     25  O   UNL     1     -51.999 -42.785 -75.600  0.00  0.00    +0.000 OA
BRANCH  24  26
ATOM     26  C   UNL     1     -52.613 -40.905 -76.937  0.00  0.00    +0.000 C 
ATOM     27  C   UNL     1     -53.849 -40.012 -77.013  0.00  0.00    +0.000 C 
ATOM     28  C   UNL     1     -51.447 -40.144 -76.301  0.00  0.00    +0.000 C 
ENDBRANCH  24  26
ENDBRANCH  13  24
TORSDOF 5
ENDMDL
MODEL 15
REMARK VINA RESULT:    -5.767     20.497     23.028
REMARK INTER + INTRA:          -8.326
REMARK INTER:                  -7.115
REMARK INTRA:                  -1.211
REMARK UNBOUND:                -0.874
REMARK  Name = 
REMARK  8 active torsions:
REMARK  status: ('A' for Active; 'I' for Inactive)
REMARK    1  A    between atoms: C_1  and  C_2
REMARK    2  A    between atoms: C_4  and  C_5
REMARK    3  A    between atoms: C_5  and  S_6
REMARK    4  A    between atoms: S_6  and  C_8
REMARK    5  A    between atoms: C_20  and  C_21
REMARK    6  A    between atoms: C_21  and  C_23
REMARK    7  A    between atoms: C_23  and  C_24
REMARK    8  A    between atoms: C_23  and  C_25
REMARK                            x       y       z     vdW  Elec       q    Type
REMARK                         _______ _______ _______ _____ _____    ______ ____
ROOT
ATOM      1  C   UNL     1     -47.919 -24.663 -61.866  0.00  0.00    +0.000 A 
ATOM      2  N   UNL     1     -47.740 -24.790 -63.240  0.00  0.00    +0.000 N 
ATOM      3  C   UNL     1     -48.476 -24.013 -64.156  0.00  0.00    +0.000 A 
ATOM      4  C   UNL     1     -48.046 -23.808 -65.480  0.00  0.00    +0.000 A 
ATOM      5 BR   UNL     1     -46.355 -24.438 -66.065  0.00  0.00    +0.000 Br
ATOM      6  C   UNL     1     -48.834 -23.098 -66.391  0.00  0.00    +0.000 A 
ATOM      7  C   UNL     1     -50.061 -22.578 -65.989  0.00  0.00    +0.000 A 
ATOM      8  C   UNL     1     -50.506 -22.765 -64.668  0.00  0.00    +0.000 A 
ATOM      9 CL   UNL     1     -52.008 -22.014 -64.268  0.00  0.00    +0.000 Cl
ATOM     10  C   UNL     1     -49.714 -23.487 -63.751  0.00  0.00    +0.000 A 
ATOM     11  C   UNL     1     -50.109 -23.767 -62.347  0.00  0.00    +0.000 A 
ATOM     12  O   UNL     1     -51.294 -23.767 -62.029  0.00  0.00    +0.000 OA
ATOM     13  C   UNL     1     -49.014 -24.073 -61.329  0.00  0.00    +0.000 A 
ATOM     14  H   UNL     1     -46.775 -25.019 -63.515  0.00  0.00    +0.000 HD
ENDROOT
BRANCH   1  15
ATOM     15  S   UNL     1     -46.424 -25.183 -60.942  0.00  0.00    +0.000 S 
ATOM     16  O   UNL     1     -45.358 -24.236 -61.422  0.00  0.00    +0.000 OA
BRANCH  15  17
ATOM     17  C   UNL     1     -46.070 -26.841 -61.617  0.00  0.00    +0.000 C 
BRANCH  17  21
ATOM     18  C   UNL     1     -49.774 -30.333 -60.672  0.00  0.00    +0.000 C 
ATOM     19  C   UNL     1     -48.809 -29.307 -61.125  0.00  0.00    +0.000 A 
ATOM     20  C   UNL     1     -47.759 -28.633 -60.544  0.00  0.00    +0.000 A 
ATOM     21  C   UNL     1     -47.238 -27.799 -61.575  0.00  0.00    +0.000 A 
ATOM     22  N   UNL     1     -47.960 -27.958 -62.698  0.00  0.00    +0.000 NA
ATOM     23  O   UNL     1     -48.932 -28.899 -62.414  0.00  0.00    +0.000 OA
ENDBRANCH  17  21
ENDBRANCH  15  17
ENDBRANCH   1  15
BRANCH  13  24
ATOM     24  C   UNL     1     -49.276 -23.649 -59.901  0.00  0.00    +0.000 C 
ATOM     25  O   UNL     1     -48.879 -22.558 -59.496  0.00  0.00    +0.000 OA
BRANCH  24  26
ATOM     26  C   UNL     1     -49.978 -24.600 -58.930  0.00  0.00    +0.000 C 
ATOM     27  C   UNL     1     -50.124 -26.002 -59.516  0.00  0.00    +0.000 C 
ATOM     28  C   UNL     1     -49.267 -24.662 -57.575  0.00  0.00    +0.000 C 
ENDBRANCH  24  26
ENDBRANCH  13  24
TORSDOF 5
ENDMDL
MODEL 16
REMARK VINA RESULT:    -5.644     24.069     26.594
REMARK INTER + INTRA:          -8.167
REMARK INTER:                  -7.063
REMARK INTRA:                  -1.104
REMARK UNBOUND:                -0.874
REMARK  Name = 
REMARK  8 active torsions:
REMARK  status: ('A' for Active; 'I' for Inactive)
REMARK    1  A    between atoms: C_1  and  C_2
REMARK    2  A    between atoms: C_4  and  C_5
REMARK    3  A    between atoms: C_5  and  S_6
REMARK    4  A    between atoms: S_6  and  C_8
REMARK    5  A    between atoms: C_20  and  C_21
REMARK    6  A    between atoms: C_21  and  C_23
REMARK    7  A    between atoms: C_23  and  C_24
REMARK    8  A    between atoms: C_23  and  C_25
REMARK                            x       y       z     vdW  Elec       q    Type
REMARK                         _______ _______ _______ _____ _____    ______ ____
ROOT
ATOM      1  C   UNL     1     -66.636 -50.888 -53.796  0.00  0.00    +0.000 A 
ATOM      2  N   UNL     1     -66.151 -50.008 -54.758  0.00  0.00    +0.000 N 
ATOM      3  C   UNL     1     -67.001 -49.409 -55.708  0.00  0.00    +0.000 A 
ATOM      4  C   UNL     1     -66.644 -48.236 -56.400  0.00  0.00    +0.000 A 
ATOM      5 BR   UNL     1     -65.053 -47.297 -55.971  0.00  0.00    +0.000 Br
ATOM      6  C   UNL     1     -67.473 -47.707 -57.393  0.00  0.00    +0.000 A 
ATOM      7  C   UNL     1     -68.673 -48.339 -57.706  0.00  0.00    +0.000 A 
ATOM      8  C   UNL     1     -69.052 -49.508 -57.022  0.00  0.00    +0.000 A 
ATOM      9 CL   UNL     1     -70.593 -50.162 -57.446  0.00  0.00    +0.000 Cl
ATOM     10  C   UNL     1     -68.212 -50.046 -56.024  0.00  0.00    +0.000 A 
ATOM     11  C   UNL     1     -68.506 -51.291 -55.268  0.00  0.00    +0.000 A 
ATOM     12  O   UNL     1     -69.253 -52.139 -55.747  0.00  0.00    +0.000 OA
ATOM     13  C   UNL     1     -67.843 -51.492 -53.909  0.00  0.00    +0.000 A 
ATOM     14  H   UNL     1     -65.357 -49.435 -54.438  0.00  0.00    +0.000 HD
ENDROOT
BRANCH   1  15
ATOM     15  S   UNL     1     -65.554 -50.930 -52.318  0.00  0.00    +0.000 S 
ATOM     16  O   UNL     1     -66.431 -50.403 -51.215  0.00  0.00    +0.000 OA
BRANCH  15  17
ATOM     17  C   UNL     1     -64.282 -49.677 -52.694  0.00  0.00    +0.000 C 
BRANCH  17  21
ATOM     18  C   UNL     1     -64.527 -45.152 -50.191  0.00  0.00    +0.000 C 
ATOM     19  C   UNL     1     -64.622 -46.378 -51.012  0.00  0.00    +0.000 A 
ATOM     20  C   UNL     1     -63.848 -47.504 -51.175  0.00  0.00    +0.000 A 
ATOM     21  C   UNL     1     -64.556 -48.309 -52.113  0.00  0.00    +0.000 A 
ATOM     22  N   UNL     1     -65.678 -47.678 -52.498  0.00  0.00    +0.000 NA
ATOM     23  O   UNL     1     -65.716 -46.481 -51.809  0.00  0.00    +0.000 OA
ENDBRANCH  17  21
ENDBRANCH  15  17
ENDBRANCH   1  15
BRANCH  13  24
ATOM     24  C   UNL     1     -68.622 -52.285 -52.883  0.00  0.00    +0.000 C 
ATOM     25  O   UNL     1     -69.472 -51.731 -52.188  0.00  0.00    +0.000 OA
BRANCH  24  26
ATOM     26  C   UNL     1     -68.314 -53.766 -52.655  0.00  0.00    +0.000 C 
ATOM     27  C   UNL     1     -67.229 -54.271 -53.603  0.00  0.00    +0.000 C 
ATOM     28  C   UNL     1     -67.924 -54.051 -51.202  0.00  0.00    +0.000 C 
ENDBRANCH  24  26
ENDBRANCH  13  24
TORSDOF 5
ENDMDL
MODEL 17
REMARK VINA RESULT:    -5.472     20.067     22.739
REMARK INTER + INTRA:          -7.945
REMARK INTER:                  -6.990
REMARK INTRA:                  -0.955
REMARK UNBOUND:                -0.874
REMARK  Name = 
REMARK  8 active torsions:
REMARK  status: ('A' for Active; 'I' for Inactive)
REMARK    1  A    between atoms: C_1  and  C_2
REMARK    2  A    between atoms: C_4  and  C_5
REMARK    3  A    between atoms: C_5  and  S_6
REMARK    4  A    between atoms: S_6  and  C_8
REMARK    5  A    between atoms: C_20  and  C_21
REMARK    6  A    between atoms: C_21  and  C_23
REMARK    7  A    between atoms: C_23  and  C_24
REMARK    8  A    between atoms: C_23  and  C_25
REMARK                            x       y       z     vdW  Elec       q    Type
REMARK                         _______ _______ _______ _____ _____    ______ ____
ROOT
ATOM      1  C   UNL     1     -47.144 -25.600 -64.123  0.00  0.00    +0.000 A 
ATOM      2  N   UNL     1     -48.000 -24.824 -64.900  0.00  0.00    +0.000 N 
ATOM      3  C   UNL     1     -49.056 -24.090 -64.326  0.00  0.00    +0.000 A 
ATOM      4  C   UNL     1     -49.658 -23.002 -64.987  0.00  0.00    +0.000 A 
ATOM      5 BR   UNL     1     -48.967 -22.356 -66.631  0.00  0.00    +0.000 Br
ATOM      6  C   UNL     1     -50.755 -22.340 -64.430  0.00  0.00    +0.000 A 
ATOM      7  C   UNL     1     -51.265 -22.753 -63.202  0.00  0.00    +0.000 A 
ATOM      8  C   UNL     1     -50.673 -23.833 -62.521  0.00  0.00    +0.000 A 
ATOM      9 CL   UNL     1     -51.346 -24.206 -60.975  0.00  0.00    +0.000 Cl
ATOM     10  C   UNL     1     -49.570 -24.505 -63.087  0.00  0.00    +0.000 A 
ATOM     11  C   UNL     1     -48.897 -25.675 -62.466  0.00  0.00    +0.000 A 
ATOM     12  O   UNL     1     -49.504 -26.380 -61.666  0.00  0.00    +0.000 OA
ATOM     13  C   UNL     1     -47.456 -25.982 -62.862  0.00  0.00    +0.000 A 
ATOM     14  H   UNL     1     -47.548 -24.399 -65.721  0.00  0.00    +0.000 HD
ENDROOT
BRANCH   1  15
ATOM     15  S   UNL     1     -45.517 -25.825 -64.937  0.00  0.00    +0.000 S 
ATOM     16  O   UNL     1     -44.569 -25.047 -64.065  0.00  0.00    +0.000 OA
BRANCH  15  17
ATOM     17  C   UNL     1     -45.712 -24.934 -66.517  0.00  0.00    +0.000 C 
BRANCH  17  21
ATOM     18  C   UNL     1     -44.295 -26.827 -71.122  0.00  0.00    +0.000 C 
ATOM     19  C   UNL     1     -44.604 -26.451 -69.725  0.00  0.00    +0.000 A 
ATOM     20  C   UNL     1     -45.171 -25.356 -69.114  0.00  0.00    +0.000 A 
ATOM     21  C   UNL     1     -45.191 -25.676 -67.726  0.00  0.00    +0.000 A 
ATOM     22  N   UNL     1     -44.644 -26.888 -67.530  0.00  0.00    +0.000 NA
ATOM     23  O   UNL     1     -44.285 -27.367 -68.775  0.00  0.00    +0.000 OA
ENDBRANCH  17  21
ENDBRANCH  15  17
ENDBRANCH   1  15
BRANCH  13  24
ATOM     24  C   UNL     1     -46.582 -26.620 -61.806  0.00  0.00    +0.000 C 
ATOM     25  O   UNL     1     -46.326 -27.823 -61.857  0.00  0.00    +0.000 OA
BRANCH  24  26
ATOM     26  C   UNL     1     -46.063 -25.793 -60.629  0.00  0.00    +0.000 C 
ATOM     27  C   UNL     1     -46.097 -24.297 -60.931  0.00  0.00    +0.000 C 
ATOM     28  C   UNL     1     -46.829 -26.091 -59.338  0.00  0.00    +0.000 C 
ENDBRANCH  24  26
ENDBRANCH  13  24
TORSDOF 5
ENDMDL
MODEL 18
REMARK VINA RESULT:    -5.469      4.766      7.077
REMARK INTER + INTRA:          -7.941
REMARK INTER:                  -6.900
REMARK INTRA:                  -1.041
REMARK UNBOUND:                -0.874
REMARK  Name = 
REMARK  8 active torsions:
REMARK  status: ('A' for Active; 'I' for Inactive)
REMARK    1  A    between atoms: C_1  and  C_2
REMARK    2  A    between atoms: C_4  and  C_5
REMARK    3  A    between atoms: C_5  and  S_6
REMARK    4  A    between atoms: S_6  and  C_8
REMARK    5  A    between atoms: C_20  and  C_21
REMARK    6  A    between atoms: C_21  and  C_23
REMARK    7  A    between atoms: C_23  and  C_24
REMARK    8  A    between atoms: C_23  and  C_25
REMARK                            x       y       z     vdW  Elec       q    Type
REMARK                         _______ _______ _______ _____ _____    ______ ____
ROOT
ATOM      1  C   UNL     1     -57.938 -45.013 -77.673  0.00  0.00    +0.000 A 
ATOM      2  N   UNL     1     -58.500 -46.286 -77.706  0.00  0.00    +0.000 N 
ATOM      3  C   UNL     1     -59.816 -46.500 -78.158  0.00  0.00    +0.000 A 
ATOM      4  C   UNL     1     -60.263 -47.762 -78.594  0.00  0.00    +0.000 A 
ATOM      5 BR   UNL     1     -59.060 -49.221 -78.753  0.00  0.00    +0.000 Br
ATOM      6  C   UNL     1     -61.596 -47.965 -78.962  0.00  0.00    +0.000 A 
ATOM      7  C   UNL     1     -62.501 -46.909 -78.905  0.00  0.00    +0.000 A 
ATOM      8  C   UNL     1     -62.073 -45.639 -78.479  0.00  0.00    +0.000 A 
ATOM      9 CL   UNL     1     -63.268 -44.392 -78.519  0.00  0.00    +0.000 Cl
ATOM     10  C   UNL     1     -60.730 -45.435 -78.101  0.00  0.00    +0.000 A 
ATOM     11  C   UNL     1     -60.189 -44.143 -77.607  0.00  0.00    +0.000 A 
ATOM     12  O   UNL     1     -60.940 -43.315 -77.099  0.00  0.00    +0.000 OA
ATOM     13  C   UNL     1     -58.689 -43.887 -77.727  0.00  0.00    +0.000 A 
ATOM     14  H   UNL     1     -57.824 -47.035 -77.912  0.00  0.00    +0.000 HD
ENDROOT
BRANCH   1  15
ATOM     15  S   UNL     1     -56.109 -45.083 -77.768  0.00  0.00    +0.000 S 
ATOM     16  O   UNL     1     -55.826 -46.498 -78.194  0.00  0.00    +0.000 OA
BRANCH  15  17
ATOM     17  C   UNL     1     -55.591 -44.887 -76.030  0.00  0.00    +0.000 C 
BRANCH  17  21
ATOM     18  C   UNL     1     -51.596 -41.594 -76.008  0.00  0.00    +0.000 C 
ATOM     19  C   UNL     1     -52.637 -42.635 -75.863  0.00  0.00    +0.000 A 
ATOM     20  C   UNL     1     -53.894 -42.836 -76.387  0.00  0.00    +0.000 A 
ATOM     21  C   UNL     1     -54.331 -44.076 -75.837  0.00  0.00    +0.000 A 
ATOM     22  N   UNL     1     -53.388 -44.566 -75.015  0.00  0.00    +0.000 NA
ATOM     23  O   UNL     1     -52.337 -43.670 -75.037  0.00  0.00    +0.000 OA
ENDBRANCH  17  21
ENDBRANCH  15  17
ENDBRANCH   1  15
BRANCH  13  24
ATOM     24  C   UNL     1     -58.258 -42.451 -77.925  0.00  0.00    +0.000 C 
ATOM     25  O   UNL     1     -58.418 -41.902 -79.014  0.00  0.00    +0.000 OA
BRANCH  24  26
ATOM     26  C   UNL     1     -57.561 -41.691 -76.796  0.00  0.00    +0.000 C 
ATOM     27  C   UNL     1     -57.734 -40.181 -76.940  0.00  0.00    +0.000 C 
ATOM     28  C   UNL     1     -58.038 -42.151 -75.416  0.00  0.00    +0.000 C 
ENDBRANCH  24  26
ENDBRANCH  13  24
TORSDOF 5
ENDMDL
MODEL 19
REMARK VINA RESULT:    -5.351     14.403     17.590
REMARK INTER + INTRA:          -7.788
REMARK INTER:                  -6.845
REMARK INTRA:                  -0.944
REMARK UNBOUND:                -0.874
REMARK  Name = 
REMARK  8 active torsions:
REMARK  status: ('A' for Active; 'I' for Inactive)
REMARK    1  A    between atoms: C_1  and  C_2
REMARK    2  A    between atoms: C_4  and  C_5
REMARK    3  A    between atoms: C_5  and  S_6
REMARK    4  A    between atoms: S_6  and  C_8
REMARK    5  A    between atoms: C_20  and  C_21
REMARK    6  A    between atoms: C_21  and  C_23
REMARK    7  A    between atoms: C_23  and  C_24
REMARK    8  A    between atoms: C_23  and  C_25
REMARK                            x       y       z     vdW  Elec       q    Type
REMARK                         _______ _______ _______ _____ _____    ______ ____
ROOT
ATOM      1  C   UNL     1     -54.263 -33.973 -61.281  0.00  0.00    +0.000 A 
ATOM      2  N   UNL     1     -54.444 -32.640 -60.925  0.00  0.00    +0.000 N 
ATOM      3  C   UNL     1     -55.727 -32.098 -60.719  0.00  0.00    +0.000 A 
ATOM      4  C   UNL     1     -55.933 -30.921 -59.975  0.00  0.00    +0.000 A 
ATOM      5 BR   UNL     1     -54.498 -30.079 -59.064  0.00  0.00    +0.000 Br
ATOM      6  C   UNL     1     -57.209 -30.362 -59.852  0.00  0.00    +0.000 A 
ATOM      7  C   UNL     1     -58.297 -30.974 -60.465  0.00  0.00    +0.000 A 
ATOM      8  C   UNL     1     -58.115 -32.156 -61.207  0.00  0.00    +0.000 A 
ATOM      9 CL   UNL     1     -59.548 -32.862 -61.861  0.00  0.00    +0.000 Cl
ATOM     10  C   UNL     1     -56.827 -32.716 -61.337  0.00  0.00    +0.000 A 
ATOM     11  C   UNL     1     -56.524 -33.939 -62.124  0.00  0.00    +0.000 A 
ATOM     12  O   UNL     1     -57.270 -34.283 -63.036  0.00  0.00    +0.000 OA
ATOM     13  C   UNL     1     -55.265 -34.731 -61.785  0.00  0.00    +0.000 A 
ATOM     14  H   UNL     1     -53.693 -32.260 -60.332  0.00  0.00    +0.000 HD
ENDROOT
BRANCH   1  15
ATOM     15  S   UNL     1     -52.609 -34.583 -60.779  0.00  0.00    +0.000 S 
ATOM     16  O   UNL     1     -52.877 -35.348 -59.512  0.00  0.00    +0.000 OA
BRANCH  15  17
ATOM     17  C   UNL     1     -51.710 -33.054 -60.352  0.00  0.00    +0.000 C 
BRANCH  17  21
ATOM     18  C   UNL     1     -47.346 -31.844 -62.861  0.00  0.00    +0.000 C 
ATOM     19  C   UNL     1     -48.684 -32.184 -62.330  0.00  0.00    +0.000 A 
ATOM     20  C   UNL     1     -49.178 -32.561 -61.102  0.00  0.00    +0.000 A 
ATOM     21  C   UNL     1     -50.583 -32.703 -61.295  0.00  0.00    +0.000 A 
ATOM     22  N   UNL     1     -50.895 -32.443 -62.576  0.00  0.00    +0.000 NA
ATOM     23  O   UNL     1     -49.713 -32.118 -63.214  0.00  0.00    +0.000 OA
ENDBRANCH  17  21
ENDBRANCH  15  17
ENDBRANCH   1  15
BRANCH  13  24
ATOM     24  C   UNL     1     -55.320 -36.225 -62.014  0.00  0.00    +0.000 C 
ATOM     25  O   UNL     1     -55.992 -36.941 -61.272  0.00  0.00    +0.000 OA
BRANCH  24  26
ATOM     26  C   UNL     1     -54.489 -36.868 -63.125  0.00  0.00    +0.000 C 
ATOM     27  C   UNL     1     -54.543 -38.392 -63.063  0.00  0.00    +0.000 C 
ATOM     28  C   UNL     1     -54.913 -36.377 -64.512  0.00  0.00    +0.000 C 
ENDBRANCH  24  26
ENDBRANCH  13  24
TORSDOF 5
ENDMDL
MODEL 20
REMARK VINA RESULT:    -5.307     21.049     23.939
REMARK INTER + INTRA:          -7.732
REMARK INTER:                  -6.530
REMARK INTRA:                  -1.201
REMARK UNBOUND:                -0.874
REMARK  Name = 
REMARK  8 active torsions:
REMARK  status: ('A' for Active; 'I' for Inactive)
REMARK    1  A    between atoms: C_1  and  C_2
REMARK    2  A    between atoms: C_4  and  C_5
REMARK    3  A    between atoms: C_5  and  S_6
REMARK    4  A    between atoms: S_6  and  C_8
REMARK    5  A    between atoms: C_20  and  C_21
REMARK    6  A    between atoms: C_21  and  C_23
REMARK    7  A    between atoms: C_23  and  C_24
REMARK    8  A    between atoms: C_23  and  C_25
REMARK                            x       y       z     vdW  Elec       q    Type
REMARK                         _______ _______ _______ _____ _____    ______ ____
ROOT
ATOM      1  C   UNL     1     -66.012 -47.512 -56.616  0.00  0.00    +0.000 A 
ATOM      2  N   UNL     1     -65.968 -48.123 -55.367  0.00  0.00    +0.000 N 
ATOM      3  C   UNL     1     -66.564 -49.378 -55.136  0.00  0.00    +0.000 A 
ATOM      4  C   UNL     1     -66.195 -50.195 -54.051  0.00  0.00    +0.000 A 
ATOM      5 BR   UNL     1     -64.747 -49.722 -52.922  0.00  0.00    +0.000 Br
ATOM      6  C   UNL     1     -66.858 -51.400 -53.801  0.00  0.00    +0.000 A 
ATOM      7  C   UNL     1     -67.896 -51.808 -54.634  0.00  0.00    +0.000 A 
ATOM      8  C   UNL     1     -68.275 -51.010 -55.728  0.00  0.00    +0.000 A 
ATOM      9 CL   UNL     1     -69.525 -51.653 -56.730  0.00  0.00    +0.000 Cl
ATOM     10  C   UNL     1     -67.611 -49.790 -55.977  0.00  0.00    +0.000 A 
ATOM     11  C   UNL     1     -67.958 -48.862 -57.083  0.00  0.00    +0.000 A 
ATOM     12  O   UNL     1     -69.084 -48.880 -57.571  0.00  0.00    +0.000 OA
ATOM     13  C   UNL     1     -66.895 -47.883 -57.574  0.00  0.00    +0.000 A 
ATOM     14  H   UNL     1     -65.107 -47.928 -54.837  0.00  0.00    +0.000 HD
ENDROOT
BRANCH   1  15
ATOM     15  S   UNL     1     -64.618 -46.344 -56.842  0.00  0.00    +0.000 S 
ATOM     16  O   UNL     1     -63.412 -47.136 -56.417  0.00  0.00    +0.000 OA
BRANCH  15  17
ATOM     17  C   UNL     1     -64.939 -45.060 -55.586  0.00  0.00    +0.000 C 
BRANCH  17  21
ATOM     18  C   UNL     1     -62.018 -45.530 -51.337  0.00  0.00    +0.000 C 
ATOM     19  C   UNL     1     -63.000 -45.495 -52.444  0.00  0.00    +0.000 A 
ATOM     20  C   UNL     1     -63.046 -44.906 -53.687  0.00  0.00    +0.000 A 
ATOM     21  C   UNL     1     -64.291 -45.317 -54.246  0.00  0.00    +0.000 A 
ATOM     22  N   UNL     1     -64.952 -46.089 -53.366  0.00  0.00    +0.000 NA
ATOM     23  O   UNL     1     -64.144 -46.200 -52.250  0.00  0.00    +0.000 OA
ENDBRANCH  17  21
ENDBRANCH  15  17
ENDBRANCH   1  15
BRANCH  13  24
ATOM     24  C   UNL     1     -66.946 -47.501 -59.036  0.00  0.00    +0.000 C 
ATOM     25  O   UNL     1     -66.294 -48.135 -59.865  0.00  0.00    +0.000 OA
BRANCH  24  26
ATOM     26  C   UNL     1     -67.754 -46.285 -59.489  0.00  0.00    +0.000 C 
ATOM     27  C   UNL     1     -66.857 -45.190 -60.062  0.00  0.00    +0.000 C 
ATOM     28  C   UNL     1     -68.841 -46.663 -60.499  0.00  0.00    +0.000 C 
ENDBRANCH  24  26
ENDBRANCH  13  24
TORSDOF 5
ENDMDL
