REMARK VINA RESULT:    -6.420     13.740     15.094
REMARK INTER + INTRA:          -8.777
REMARK INTER:                  -8.151
REMARK INTRA:                  -0.626
REMARK UNBOUND:                -0.856
REMARK  Name = 
REMARK  6 active torsions:
REMARK  status: ('A' for Active; 'I' for Inactive)
REMARK    1  A    between atoms: C_1  and  C_2
REMARK    2  A    between atoms: C_2  and  C_4
REMARK    3  A    between atoms: C_5  and  S_6
REMARK    4  A    between atoms: S_6  and  C_8
REMARK    5  A    between atoms: C_8  and  C_9
REMARK    6  A    between atoms: C_11  and  C_12
REMARK                            x       y       z     vdW  Elec       q    Type
REMARK                         _______ _______ _______ _____ _____    ______ ____
ROOT
ATOM      1  C   UNL     1     -56.350 -42.665 -76.650  0.00  0.00    +0.000 A 
ATOM      2  C   UNL     1     -55.345 -43.477 -76.253  0.00  0.00    +0.000 A 
ATOM      3  N   UNL     1     -55.375 -44.846 -76.433  0.00  0.00    +0.000 N 
ATOM      4  C   UNL     1     -56.491 -45.528 -76.945  0.00  0.00    +0.000 A 
ATOM      5  C   UNL     1     -56.461 -46.918 -77.142  0.00  0.00    +0.000 A 
ATOM      6 BR   UNL     1     -54.933 -47.939 -76.656  0.00  0.00    +0.000 Br
ATOM      7  C   UNL     1     -57.547 -47.590 -77.707  0.00  0.00    +0.000 A 
ATOM      8  C   UNL     1     -58.680 -46.876 -78.078  0.00  0.00    +0.000 A 
ATOM      9  C   UNL     1     -58.734 -45.492 -77.901  0.00  0.00    +0.000 A 
ATOM     10 CL   UNL     1     -60.222 -44.750 -78.381  0.00  0.00    +0.000 Cl
ATOM     11  C   UNL     1     -57.623 -44.810 -77.363  0.00  0.00    +0.000 A 
ATOM     12  C   UNL     1     -57.570 -43.336 -77.228  0.00  0.00    +0.000 A 
ATOM     13  O   UNL     1     -58.527 -42.662 -77.584  0.00  0.00    +0.000 OA
ATOM     14  H   UNL     1     -54.692 -45.402 -75.923  0.00  0.00    +0.000 HD
ENDROOT
BRANCH   1  16
ATOM     15  C   UNL     1     -57.094 -40.479 -75.459  0.00  0.00    +0.000 C 
ATOM     16  C   UNL     1     -56.337 -41.161 -76.572  0.00  0.00    +0.000 C 
ATOM     17  O   UNL     1     -55.755 -40.484 -77.409  0.00  0.00    +0.000 OA
ENDBRANCH   1  16
BRANCH   2  18
ATOM     18  S   UNL     1     -53.904 -42.823 -75.329  0.00  0.00    +0.000 S 
ATOM     19  O   UNL     1     -53.245 -44.054 -74.767  0.00  0.00    +0.000 OA
BRANCH  18  20
ATOM     20  C   UNL     1     -52.851 -42.287 -76.726  0.00  0.00    +0.000 C 
BRANCH  20  21
ATOM     21  C   UNL     1     -52.021 -41.094 -76.380  0.00  0.00    +0.000 A 
ATOM     22  C   UNL     1     -50.741 -41.045 -75.770  0.00  0.00    +0.000 A 
ATOM     23  C   UNL     1     -50.412 -39.708 -75.756  0.00  0.00    +0.000 A 
ATOM     24  C   UNL     1     -49.250 -38.930 -75.281  0.00  0.00    +0.000 C 
ATOM     25  O   UNL     1     -51.424 -39.000 -76.327  0.00  0.00    +0.000 OA
ATOM     26  N   UNL     1     -52.428 -39.867 -76.728  0.00  0.00    +0.000 NA
ENDBRANCH  20  21
ENDBRANCH  18  20
ENDBRANCH   2  18
TORSDOF 4
