MODEL 1
REMARK VINA RESULT:    -7.497      0.000      0.000
REMARK INTER + INTRA:         -10.558
REMARK INTER:                  -9.688
REMARK INTRA:                  -0.870
REMARK UNBOUND:                -0.870
REMARK  Name = 
REMARK  8 active torsions:
REMARK  status: ('A' for Active; 'I' for Inactive)
REMARK    1  A    between atoms: C_1  and  C_2
REMARK    2  A    between atoms: C_4  and  C_5
REMARK    3  A    between atoms: C_5  and  S_6
REMARK    4  A    between atoms: S_6  and  C_8
REMARK    5  A    between atoms: C_20  and  C_21
REMARK    6  A    between atoms: C_21  and  C_23
REMARK    7  A    between atoms: C_23  and  C_24
REMARK    8  A    between atoms: C_23  and  C_25
REMARK                            x       y       z     vdW  Elec       q    Type
REMARK                         _______ _______ _______ _____ _____    ______ ____
ROOT
ATOM      1  C   UNL     1     -55.915 -42.601 -76.606  0.00  0.00    +0.000 A 
ATOM      2  N   UNL     1     -54.605 -42.985 -76.336  0.00  0.00    +0.000 N 
ATOM      3  C   UNL     1     -53.555 -42.047 -76.287  0.00  0.00    +0.000 A 
ATOM      4  C   UNL     1     -52.341 -42.314 -75.626  0.00  0.00    +0.000 A 
ATOM      5 BR   UNL     1     -52.110 -43.903 -74.616  0.00  0.00    +0.000 Br
ATOM      6  C   UNL     1     -51.287 -41.397 -75.660  0.00  0.00    +0.000 A 
ATOM      7  C   UNL     1     -51.432 -40.198 -76.350  0.00  0.00    +0.000 A 
ATOM      8  C   UNL     1     -52.639 -39.908 -77.011  0.00  0.00    +0.000 A 
ATOM      9 CL   UNL     1     -52.726 -38.360 -77.772  0.00  0.00    +0.000 Cl
ATOM     10  C   UNL     1     -53.701 -40.836 -76.984  0.00  0.00    +0.000 A 
ATOM     11  C   UNL     1     -55.000 -40.639 -77.676  0.00  0.00    +0.000 A 
ATOM     12  O   UNL     1     -55.075 -39.884 -78.641  0.00  0.00    +0.000 OA
ATOM     13  C   UNL     1     -56.218 -41.408 -77.172  0.00  0.00    +0.000 A 
ATOM     14  H   UNL     1     -54.529 -43.782 -75.689  0.00  0.00    +0.000 HD
ENDROOT
BRANCH   1  15
ATOM     15  S   UNL     1     -57.121 -43.792 -75.911  0.00  0.00    +0.000 S 
ATOM     16  O   UNL     1     -57.824 -44.341 -77.123  0.00  0.00    +0.000 OA
BRANCH  15  17
ATOM     17  C   UNL     1     -58.288 -42.724 -75.001  0.00  0.00    +0.000 C 
BRANCH  17  21
ATOM     18  C   UNL     1     -55.856 -41.106 -70.726  0.00  0.00    +0.000 C 
ATOM     19  C   UNL     1     -56.630 -41.377 -71.958  0.00  0.00    +0.000 A 
ATOM     20  C   UNL     1     -56.716 -42.427 -72.844  0.00  0.00    +0.000 A 
ATOM     21  C   UNL     1     -57.695 -42.028 -73.798  0.00  0.00    +0.000 A 
ATOM     22  N   UNL     1     -58.147 -40.797 -73.500  0.00  0.00    +0.000 NA
ATOM     23  O   UNL     1     -57.485 -40.399 -72.354  0.00  0.00    +0.000 OA
ENDBRANCH  17  21
ENDBRANCH  15  17
ENDBRANCH   1  15
BRANCH  13  24
ATOM     24  C   UNL     1     -57.562 -40.733 -77.333  0.00  0.00    +0.000 C 
ATOM     25  O   UNL     1     -57.852 -39.759 -76.640  0.00  0.00    +0.000 OA
BRANCH  24  26
ATOM     26  C   UNL     1     -58.597 -41.295 -78.308  0.00  0.00    +0.000 C 
ATOM     27  C   UNL     1     -59.718 -40.296 -78.582  0.00  0.00    +0.000 C 
ATOM     28  C   UNL     1     -57.957 -41.748 -79.623  0.00  0.00    +0.000 C 
ENDBRANCH  24  26
ENDBRANCH  13  24
TORSDOF 5
ENDMDL
MODEL 2
REMARK VINA RESULT:    -7.180     10.529     12.886
REMARK INTER + INTRA:         -10.148
REMARK INTER:                  -9.010
REMARK INTRA:                  -1.139
REMARK UNBOUND:                -0.870
REMARK  Name = 
REMARK  8 active torsions:
REMARK  status: ('A' for Active; 'I' for Inactive)
REMARK    1  A    between atoms: C_1  and  C_2
REMARK    2  A    between atoms: C_4  and  C_5
REMARK    3  A    between atoms: C_5  and  S_6
REMARK    4  A    between atoms: S_6  and  C_8
REMARK    5  A    between atoms: C_20  and  C_21
REMARK    6  A    between atoms: C_21  and  C_23
REMARK    7  A    between atoms: C_23  and  C_24
REMARK    8  A    between atoms: C_23  and  C_25
REMARK                            x       y       z     vdW  Elec       q    Type
REMARK                         _______ _______ _______ _____ _____    ______ ____
ROOT
ATOM      1  C   UNL     1     -55.511 -41.713 -62.872  0.00  0.00    +0.000 A 
ATOM      2  N   UNL     1     -54.858 -42.941 -62.823  0.00  0.00    +0.000 N 
ATOM      3  C   UNL     1     -53.499 -43.070 -63.172  0.00  0.00    +0.000 A 
ATOM      4  C   UNL     1     -52.717 -44.161 -62.748  0.00  0.00    +0.000 A 
ATOM      5 BR   UNL     1     -53.409 -45.446 -61.537  0.00  0.00    +0.000 Br
ATOM      6  C   UNL     1     -51.393 -44.305 -63.174  0.00  0.00    +0.000 A 
ATOM      7  C   UNL     1     -50.831 -43.358 -64.026  0.00  0.00    +0.000 A 
ATOM      8  C   UNL     1     -51.594 -42.257 -64.456  0.00  0.00    +0.000 A 
ATOM      9 CL   UNL     1     -50.767 -41.113 -65.451  0.00  0.00    +0.000 Cl
ATOM     10  C   UNL     1     -52.931 -42.115 -64.032  0.00  0.00    +0.000 A 
ATOM     11  C   UNL     1     -53.828 -41.009 -64.454  0.00  0.00    +0.000 A 
ATOM     12  O   UNL     1     -53.613 -40.409 -65.502  0.00  0.00    +0.000 OA
ATOM     13  C   UNL     1     -55.022 -40.660 -63.569  0.00  0.00    +0.000 A 
ATOM     14  H   UNL     1     -55.191 -43.561 -62.072  0.00  0.00    +0.000 HD
ENDROOT
BRANCH   1  15
ATOM     15  S   UNL     1     -56.942 -41.667 -61.729  0.00  0.00    +0.000 S 
ATOM     16  O   UNL     1     -56.381 -42.182 -60.431  0.00  0.00    +0.000 OA
BRANCH  15  17
ATOM     17  C   UNL     1     -58.067 -42.929 -62.414  0.00  0.00    +0.000 C 
BRANCH  17  21
ATOM     18  C   UNL     1     -58.904 -42.386 -67.494  0.00  0.00    +0.000 C 
ATOM     19  C   UNL     1     -58.528 -42.688 -66.095  0.00  0.00    +0.000 A 
ATOM     20  C   UNL     1     -58.817 -42.136 -64.868  0.00  0.00    +0.000 A 
ATOM     21  C   UNL     1     -58.137 -42.957 -63.923  0.00  0.00    +0.000 A 
ATOM     22  N   UNL     1     -57.465 -43.929 -64.564  0.00  0.00    +0.000 NA
ATOM     23  O   UNL     1     -57.715 -43.759 -65.913  0.00  0.00    +0.000 OA
ENDBRANCH  17  21
ENDBRANCH  15  17
ENDBRANCH   1  15
BRANCH  13  24
ATOM     24  C   UNL     1     -55.460 -39.213 -63.560  0.00  0.00    +0.000 C 
ATOM     25  O   UNL     1     -56.591 -38.906 -63.937  0.00  0.00    +0.000 OA
BRANCH  24  26
ATOM     26  C   UNL     1     -54.483 -38.112 -63.146  0.00  0.00    +0.000 C 
ATOM     27  C   UNL     1     -54.454 -36.970 -64.159  0.00  0.00    +0.000 C 
ATOM     28  C   UNL     1     -54.790 -37.572 -61.746  0.00  0.00    +0.000 C 
ENDBRANCH  24  26
ENDBRANCH  13  24
TORSDOF 5
ENDMDL
MODEL 3
REMARK VINA RESULT:    -7.159      2.834      4.054
REMARK INTER + INTRA:         -10.122
REMARK INTER:                  -9.045
REMARK INTRA:                  -1.077
REMARK UNBOUND:                -0.870
REMARK  Name = 
REMARK  8 active torsions:
REMARK  status: ('A' for Active; 'I' for Inactive)
REMARK    1  A    between atoms: C_1  and  C_2
REMARK    2  A    between atoms: C_4  and  C_5
REMARK    3  A    between atoms: C_5  and  S_6
REMARK    4  A    between atoms: S_6  and  C_8
REMARK    5  A    between atoms: C_20  and  C_21
REMARK    6  A    between atoms: C_21  and  C_23
REMARK    7  A    between atoms: C_23  and  C_24
REMARK    8  A    between atoms: C_23  and  C_25
REMARK                            x       y       z     vdW  Elec       q    Type
REMARK                         _______ _______ _______ _____ _____    ______ ____
ROOT
ATOM      1  C   UNL     1     -55.632 -42.291 -77.390  0.00  0.00    +0.000 A 
ATOM      2  N   UNL     1     -54.917 -41.102 -77.289  0.00  0.00    +0.000 N 
ATOM      3  C   UNL     1     -53.577 -41.080 -76.857  0.00  0.00    +0.000 A 
ATOM      4  C   UNL     1     -52.718 -40.000 -77.134  0.00  0.00    +0.000 A 
ATOM      5 BR   UNL     1     -53.273 -38.574 -78.255  0.00  0.00    +0.000 Br
ATOM      6  C   UNL     1     -51.416 -39.968 -76.626  0.00  0.00    +0.000 A 
ATOM      7  C   UNL     1     -50.952 -41.017 -75.838  0.00  0.00    +0.000 A 
ATOM      8  C   UNL     1     -51.792 -42.109 -75.555  0.00  0.00    +0.000 A 
ATOM      9 CL   UNL     1     -51.084 -43.382 -74.628  0.00  0.00    +0.000 Cl
ATOM     10  C   UNL     1     -53.108 -42.138 -76.061  0.00  0.00    +0.000 A 
ATOM     11  C   UNL     1     -54.082 -43.227 -75.793  0.00  0.00    +0.000 A 
ATOM     12  O   UNL     1     -53.959 -43.931 -74.796  0.00  0.00    +0.000 OA
ATOM     13  C   UNL     1     -55.238 -43.429 -76.770  0.00  0.00    +0.000 A 
ATOM     14  H   UNL     1     -55.175 -40.399 -77.996  0.00  0.00    +0.000 HD
ENDROOT
BRANCH   1  15
ATOM     15  S   UNL     1     -56.995 -42.155 -78.608  0.00  0.00    +0.000 S 
ATOM     16  O   UNL     1     -56.365 -41.441 -79.773  0.00  0.00    +0.000 OA
BRANCH  15  17
ATOM     17  C   UNL     1     -58.169 -41.018 -77.798  0.00  0.00    +0.000 C 
BRANCH  17  21
ATOM     18  C   UNL     1     -58.009 -40.900 -72.625  0.00  0.00    +0.000 C 
ATOM     19  C   UNL     1     -58.180 -41.098 -74.081  0.00  0.00    +0.000 A 
ATOM     20  C   UNL     1     -57.810 -40.401 -75.209  0.00  0.00    +0.000 A 
ATOM     21  C   UNL     1     -58.278 -41.187 -76.301  0.00  0.00    +0.000 A 
ATOM     22  N   UNL     1     -58.910 -42.280 -75.838  0.00  0.00    +0.000 NA
ATOM     23  O   UNL     1     -58.843 -42.221 -74.459  0.00  0.00    +0.000 OA
ENDBRANCH  17  21
ENDBRANCH  15  17
ENDBRANCH   1  15
BRANCH  13  24
ATOM     24  C   UNL     1     -55.747 -44.843 -76.938  0.00  0.00    +0.000 C 
ATOM     25  O   UNL     1     -56.926 -45.108 -76.708  0.00  0.00    +0.000 OA
BRANCH  24  26
ATOM     26  C   UNL     1     -54.788 -45.968 -77.330  0.00  0.00    +0.000 C 
ATOM     27  C   UNL     1     -54.687 -47.031 -76.239  0.00  0.00    +0.000 C 
ATOM     28  C   UNL     1     -55.174 -46.610 -78.664  0.00  0.00    +0.000 C 
ENDBRANCH  24  26
ENDBRANCH  13  24
TORSDOF 5
ENDMDL
MODEL 4
REMARK VINA RESULT:    -6.869      3.374      5.575
REMARK INTER + INTRA:          -9.746
REMARK INTER:                  -8.095
REMARK INTRA:                  -1.652
REMARK UNBOUND:                -0.870
REMARK  Name = 
REMARK  8 active torsions:
REMARK  status: ('A' for Active; 'I' for Inactive)
REMARK    1  A    between atoms: C_1  and  C_2
REMARK    2  A    between atoms: C_4  and  C_5
REMARK    3  A    between atoms: C_5  and  S_6
REMARK    4  A    between atoms: S_6  and  C_8
REMARK    5  A    between atoms: C_20  and  C_21
REMARK    6  A    between atoms: C_21  and  C_23
REMARK    7  A    between atoms: C_23  and  C_24
REMARK    8  A    between atoms: C_23  and  C_25
REMARK                            x       y       z     vdW  Elec       q    Type
REMARK                         _______ _______ _______ _____ _____    ______ ____
ROOT
ATOM      1  C   UNL     1     -56.095 -41.934 -77.681  0.00  0.00    +0.000 A 
ATOM      2  N   UNL     1     -55.245 -40.863 -77.421  0.00  0.00    +0.000 N 
ATOM      3  C   UNL     1     -53.945 -41.057 -76.914  0.00  0.00    +0.000 A 
ATOM      4  C   UNL     1     -52.941 -40.078 -77.033  0.00  0.00    +0.000 A 
ATOM      5 BR   UNL     1     -53.236 -38.494 -78.034  0.00  0.00    +0.000 Br
ATOM      6  C   UNL     1     -51.683 -40.264 -76.453  0.00  0.00    +0.000 A 
ATOM      7  C   UNL     1     -51.409 -41.434 -75.749  0.00  0.00    +0.000 A 
ATOM      8  C   UNL     1     -52.397 -42.428 -75.625  0.00  0.00    +0.000 A 
ATOM      9 CL   UNL     1     -51.918 -43.863 -74.793  0.00  0.00    +0.000 Cl
ATOM     10  C   UNL     1     -53.668 -42.237 -76.205  0.00  0.00    +0.000 A 
ATOM     11  C   UNL     1     -54.787 -43.209 -76.102  0.00  0.00    +0.000 A 
ATOM     12  O   UNL     1     -54.820 -44.012 -75.175  0.00  0.00    +0.000 OA
ATOM     13  C   UNL     1     -55.889 -43.166 -77.157  0.00  0.00    +0.000 A 
ATOM     14  H   UNL     1     -55.364 -40.070 -78.067  0.00  0.00    +0.000 HD
ENDROOT
BRANCH   1  15
ATOM     15  S   UNL     1     -57.343 -41.508 -78.953  0.00  0.00    +0.000 S 
ATOM     16  O   UNL     1     -58.538 -42.342 -78.578  0.00  0.00    +0.000 OA
BRANCH  15  17
ATOM     17  C   UNL     1     -56.625 -42.185 -80.488  0.00  0.00    +0.000 C 
BRANCH  17  21
ATOM     18  C   UNL     1     -51.464 -42.519 -80.726  0.00  0.00    +0.000 C 
ATOM     19  C   UNL     1     -52.913 -42.222 -80.696  0.00  0.00    +0.000 A 
ATOM     20  C   UNL     1     -54.061 -42.976 -80.612  0.00  0.00    +0.000 A 
ATOM     21  C   UNL     1     -55.126 -42.030 -80.602  0.00  0.00    +0.000 A 
ATOM     22  N   UNL     1     -54.630 -40.785 -80.698  0.00  0.00    +0.000 NA
ATOM     23  O   UNL     1     -53.254 -40.909 -80.752  0.00  0.00    +0.000 OA
ENDBRANCH  17  21
ENDBRANCH  15  17
ENDBRANCH   1  15
BRANCH  13  24
ATOM     24  C   UNL     1     -56.558 -44.479 -77.495  0.00  0.00    +0.000 C 
ATOM     25  O   UNL     1     -57.558 -44.841 -76.876  0.00  0.00    +0.000 OA
BRANCH  24  26
ATOM     26  C   UNL     1     -55.961 -45.399 -78.560  0.00  0.00    +0.000 C 
ATOM     27  C   UNL     1     -55.080 -46.483 -77.943  0.00  0.00    +0.000 C 
ATOM     28  C   UNL     1     -57.042 -46.031 -79.441  0.00  0.00    +0.000 C 
ENDBRANCH  24  26
ENDBRANCH  13  24
TORSDOF 5
ENDMDL
MODEL 5
REMARK VINA RESULT:    -6.718      4.035      7.310
REMARK INTER + INTRA:          -9.552
REMARK INTER:                  -8.661
REMARK INTRA:                  -0.891
REMARK UNBOUND:                -0.870
REMARK  Name = 
REMARK  8 active torsions:
REMARK  status: ('A' for Active; 'I' for Inactive)
REMARK    1  A    between atoms: C_1  and  C_2
REMARK    2  A    between atoms: C_4  and  C_5
REMARK    3  A    between atoms: C_5  and  S_6
REMARK    4  A    between atoms: S_6  and  C_8
REMARK    5  A    between atoms: C_20  and  C_21
REMARK    6  A    between atoms: C_21  and  C_23
REMARK    7  A    between atoms: C_23  and  C_24
REMARK    8  A    between atoms: C_23  and  C_25
REMARK                            x       y       z     vdW  Elec       q    Type
REMARK                         _______ _______ _______ _____ _____    ______ ____
ROOT
ATOM      1  C   UNL     1     -55.313 -42.263 -77.857  0.00  0.00    +0.000 A 
ATOM      2  N   UNL     1     -56.613 -42.665 -77.566  0.00  0.00    +0.000 N 
ATOM      3  C   UNL     1     -57.165 -42.507 -76.280  0.00  0.00    +0.000 A 
ATOM      4  C   UNL     1     -58.555 -42.505 -76.056  0.00  0.00    +0.000 A 
ATOM      5 BR   UNL     1     -59.777 -42.554 -77.506  0.00  0.00    +0.000 Br
ATOM      6  C   UNL     1     -59.074 -42.425 -74.761  0.00  0.00    +0.000 A 
ATOM      7  C   UNL     1     -58.212 -42.340 -73.671  0.00  0.00    +0.000 A 
ATOM      8  C   UNL     1     -56.820 -42.332 -73.874  0.00  0.00    +0.000 A 
ATOM      9 CL   UNL     1     -55.855 -42.151 -72.453  0.00  0.00    +0.000 Cl
ATOM     10  C   UNL     1     -56.296 -42.421 -75.180  0.00  0.00    +0.000 A 
ATOM     11  C   UNL     1     -54.845 -42.453 -75.497  0.00  0.00    +0.000 A 
ATOM     12  O   UNL     1     -54.040 -42.833 -74.652  0.00  0.00    +0.000 OA
ATOM     13  C   UNL     1     -54.393 -42.029 -76.891  0.00  0.00    +0.000 A 
ATOM     14  H   UNL     1     -57.268 -42.563 -78.354  0.00  0.00    +0.000 HD
ENDROOT
BRANCH   1  15
ATOM     15  S   UNL     1     -55.107 -41.896 -79.641  0.00  0.00    +0.000 S 
ATOM     16  O   UNL     1     -56.417 -42.318 -80.248  0.00  0.00    +0.000 OA
BRANCH  15  17
ATOM     17  C   UNL     1     -53.819 -43.078 -80.165  0.00  0.00    +0.000 C 
BRANCH  17  21
ATOM     18  C   UNL     1     -50.239 -41.906 -83.716  0.00  0.00    +0.000 C 
ATOM     19  C   UNL     1     -51.392 -42.127 -82.816  0.00  0.00    +0.000 A 
ATOM     20  C   UNL     1     -51.627 -42.908 -81.708  0.00  0.00    +0.000 A 
ATOM     21  C   UNL     1     -52.962 -42.604 -81.316  0.00  0.00    +0.000 A 
ATOM     22  N   UNL     1     -53.492 -41.706 -82.165  0.00  0.00    +0.000 NA
ATOM     23  O   UNL     1     -52.511 -41.411 -83.092  0.00  0.00    +0.000 OA
ENDBRANCH  17  21
ENDBRANCH  15  17
ENDBRANCH   1  15
BRANCH  13  24
ATOM     24  C   UNL     1     -53.029 -41.383 -76.996  0.00  0.00    +0.000 C 
ATOM     25  O   UNL     1     -52.040 -42.067 -77.255  0.00  0.00    +0.000 OA
BRANCH  24  26
ATOM     26  C   UNL     1     -52.858 -39.890 -76.717  0.00  0.00    +0.000 C 
ATOM     27  C   UNL     1     -51.429 -39.553 -76.298  0.00  0.00    +0.000 C 
ATOM     28  C   UNL     1     -53.277 -39.032 -77.914  0.00  0.00    +0.000 C 
ENDBRANCH  24  26
ENDBRANCH  13  24
TORSDOF 5
ENDMDL
MODEL 6
REMARK VINA RESULT:    -6.693      2.516      4.248
REMARK INTER + INTRA:          -9.519
REMARK INTER:                  -8.529
REMARK INTRA:                  -0.990
REMARK UNBOUND:                -0.870
REMARK  Name = 
REMARK  8 active torsions:
REMARK  status: ('A' for Active; 'I' for Inactive)
REMARK    1  A    between atoms: C_1  and  C_2
REMARK    2  A    between atoms: C_4  and  C_5
REMARK    3  A    between atoms: C_5  and  S_6
REMARK    4  A    between atoms: S_6  and  C_8
REMARK    5  A    between atoms: C_20  and  C_21
REMARK    6  A    between atoms: C_21  and  C_23
REMARK    7  A    between atoms: C_23  and  C_24
REMARK    8  A    between atoms: C_23  and  C_25
REMARK                            x       y       z     vdW  Elec       q    Type
REMARK                         _______ _______ _______ _____ _____    ______ ____
ROOT
ATOM      1  C   UNL     1     -55.551 -42.690 -76.676  0.00  0.00    +0.000 A 
ATOM      2  N   UNL     1     -54.222 -43.002 -76.405  0.00  0.00    +0.000 N 
ATOM      3  C   UNL     1     -53.239 -42.001 -76.278  0.00  0.00    +0.000 A 
ATOM      4  C   UNL     1     -52.020 -42.229 -75.612  0.00  0.00    +0.000 A 
ATOM      5 BR   UNL     1     -51.697 -43.860 -74.699  0.00  0.00    +0.000 Br
ATOM      6  C   UNL     1     -51.030 -41.243 -75.568  0.00  0.00    +0.000 A 
ATOM      7  C   UNL     1     -51.246 -40.014 -76.185  0.00  0.00    +0.000 A 
ATOM      8  C   UNL     1     -52.460 -39.764 -76.850  0.00  0.00    +0.000 A 
ATOM      9 CL   UNL     1     -52.641 -38.181 -77.515  0.00  0.00    +0.000 Cl
ATOM     10  C   UNL     1     -53.456 -40.761 -76.900  0.00  0.00    +0.000 A 
ATOM     11  C   UNL     1     -54.756 -40.608 -77.603  0.00  0.00    +0.000 A 
ATOM     12  O   UNL     1     -54.867 -39.800 -78.521  0.00  0.00    +0.000 OA
ATOM     13  C   UNL     1     -55.926 -41.487 -77.172  0.00  0.00    +0.000 A 
ATOM     14  H   UNL     1     -54.102 -43.832 -75.808  0.00  0.00    +0.000 HD
ENDROOT
BRANCH   1  15
ATOM     15  S   UNL     1     -56.684 -44.001 -76.079  0.00  0.00    +0.000 S 
ATOM     16  O   UNL     1     -57.163 -43.484 -74.750  0.00  0.00    +0.000 OA
BRANCH  15  17
ATOM     17  C   UNL     1     -55.570 -45.415 -75.782  0.00  0.00    +0.000 C 
BRANCH  17  21
ATOM     18  C   UNL     1     -55.225 -48.365 -80.023  0.00  0.00    +0.000 C 
ATOM     19  C   UNL     1     -55.406 -47.688 -78.720  0.00  0.00    +0.000 A 
ATOM     20  C   UNL     1     -55.042 -46.469 -78.196  0.00  0.00    +0.000 A 
ATOM     21  C   UNL     1     -55.575 -46.459 -76.874  0.00  0.00    +0.000 A 
ATOM     22  N   UNL     1     -56.202 -47.622 -76.628  0.00  0.00    +0.000 NA
ATOM     23  O   UNL     1     -56.097 -48.381 -77.778  0.00  0.00    +0.000 OA
ENDBRANCH  17  21
ENDBRANCH  15  17
ENDBRANCH   1  15
BRANCH  13  24
ATOM     24  C   UNL     1     -57.311 -40.895 -77.316  0.00  0.00    +0.000 C 
ATOM     25  O   UNL     1     -57.664 -39.964 -76.593  0.00  0.00    +0.000 OA
BRANCH  24  26
ATOM     26  C   UNL     1     -58.305 -41.489 -78.314  0.00  0.00    +0.000 C 
ATOM     27  C   UNL     1     -59.533 -40.598 -78.488  0.00  0.00    +0.000 C 
ATOM     28  C   UNL     1     -57.656 -41.770 -79.671  0.00  0.00    +0.000 C 
ENDBRANCH  24  26
ENDBRANCH  13  24
TORSDOF 5
ENDMDL
MODEL 7
REMARK VINA RESULT:    -6.347      3.333      5.536
REMARK INTER + INTRA:          -9.073
REMARK INTER:                  -8.081
REMARK INTRA:                  -0.991
REMARK UNBOUND:                -0.870
REMARK  Name = 
REMARK  8 active torsions:
REMARK  status: ('A' for Active; 'I' for Inactive)
REMARK    1  A    between atoms: C_1  and  C_2
REMARK    2  A    between atoms: C_4  and  C_5
REMARK    3  A    between atoms: C_5  and  S_6
REMARK    4  A    between atoms: S_6  and  C_8
REMARK    5  A    between atoms: C_20  and  C_21
REMARK    6  A    between atoms: C_21  and  C_23
REMARK    7  A    between atoms: C_23  and  C_24
REMARK    8  A    between atoms: C_23  and  C_25
REMARK                            x       y       z     vdW  Elec       q    Type
REMARK                         _______ _______ _______ _____ _____    ______ ____
ROOT
ATOM      1  C   UNL     1     -57.339 -41.757 -77.675  0.00  0.00    +0.000 A 
ATOM      2  N   UNL     1     -56.854 -41.348 -78.914  0.00  0.00    +0.000 N 
ATOM      3  C   UNL     1     -55.501 -41.512 -79.269  0.00  0.00    +0.000 A 
ATOM      4  C   UNL     1     -55.072 -41.505 -80.609  0.00  0.00    +0.000 A 
ATOM      5 BR   UNL     1     -56.322 -41.438 -82.034  0.00  0.00    +0.000 Br
ATOM      6  C   UNL     1     -53.714 -41.592 -80.930  0.00  0.00    +0.000 A 
ATOM      7  C   UNL     1     -52.766 -41.690 -79.916  0.00  0.00    +0.000 A 
ATOM      8  C   UNL     1     -53.174 -41.706 -78.570  0.00  0.00    +0.000 A 
ATOM      9 CL   UNL     1     -51.915 -41.904 -77.405  0.00  0.00    +0.000 Cl
ATOM     10  C   UNL     1     -54.544 -41.612 -78.246  0.00  0.00    +0.000 A 
ATOM     11  C   UNL     1     -55.073 -41.586 -76.858  0.00  0.00    +0.000 A 
ATOM     12  O   UNL     1     -54.356 -41.219 -75.933  0.00  0.00    +0.000 OA
ATOM     13  C   UNL     1     -56.522 -42.004 -76.623  0.00  0.00    +0.000 A 
ATOM     14  H   UNL     1     -57.536 -41.439 -79.680  0.00  0.00    +0.000 HD
ENDROOT
BRANCH   1  15
ATOM     15  S   UNL     1     -59.135 -42.112 -77.741  0.00  0.00    +0.000 S 
ATOM     16  O   UNL     1     -59.206 -43.615 -77.708  0.00  0.00    +0.000 OA
BRANCH  15  17
ATOM     17  C   UNL     1     -59.614 -41.547 -79.409  0.00  0.00    +0.000 C 
BRANCH  17  21
ATOM     18  C   UNL     1     -61.916 -36.957 -78.752  0.00  0.00    +0.000 C 
ATOM     19  C   UNL     1     -61.374 -38.286 -79.110  0.00  0.00    +0.000 A 
ATOM     20  C   UNL     1     -60.367 -39.091 -78.627  0.00  0.00    +0.000 A 
ATOM     21  C   UNL     1     -60.412 -40.265 -79.433  0.00  0.00    +0.000 A 
ATOM     22  N   UNL     1     -61.382 -40.147 -80.356  0.00  0.00    +0.000 NA
ATOM     23  O   UNL     1     -61.979 -38.918 -80.149  0.00  0.00    +0.000 OA
ENDBRANCH  17  21
ENDBRANCH  15  17
ENDBRANCH   1  15
BRANCH  13  24
ATOM     24  C   UNL     1     -56.834 -42.658 -75.296  0.00  0.00    +0.000 C 
ATOM     25  O   UNL     1     -56.653 -43.865 -75.143  0.00  0.00    +0.000 OA
BRANCH  24  26
ATOM     26  C   UNL     1     -57.439 -41.839 -74.154  0.00  0.00    +0.000 C 
ATOM     27  C   UNL     1     -58.899 -42.209 -73.904  0.00  0.00    +0.000 C 
ATOM     28  C   UNL     1     -56.629 -41.973 -72.862  0.00  0.00    +0.000 C 
ENDBRANCH  24  26
ENDBRANCH  13  24
TORSDOF 5
ENDMDL
MODEL 8
REMARK VINA RESULT:    -6.246      3.063      4.492
REMARK INTER + INTRA:          -8.941
REMARK INTER:                  -8.024
REMARK INTRA:                  -0.918
REMARK UNBOUND:                -0.870
REMARK  Name = 
REMARK  8 active torsions:
REMARK  status: ('A' for Active; 'I' for Inactive)
REMARK    1  A    between atoms: C_1  and  C_2
REMARK    2  A    between atoms: C_4  and  C_5
REMARK    3  A    between atoms: C_5  and  S_6
REMARK    4  A    between atoms: S_6  and  C_8
REMARK    5  A    between atoms: C_20  and  C_21
REMARK    6  A    between atoms: C_21  and  C_23
REMARK    7  A    between atoms: C_23  and  C_24
REMARK    8  A    between atoms: C_23  and  C_25
REMARK                            x       y       z     vdW  Elec       q    Type
REMARK                         _______ _______ _______ _____ _____    ______ ____
ROOT
ATOM      1  C   UNL     1     -55.495 -43.821 -76.947  0.00  0.00    +0.000 A 
ATOM      2  N   UNL     1     -54.173 -43.900 -76.519  0.00  0.00    +0.000 N 
ATOM      3  C   UNL     1     -53.366 -42.752 -76.396  0.00  0.00    +0.000 A 
ATOM      4  C   UNL     1     -52.209 -42.732 -75.595  0.00  0.00    +0.000 A 
ATOM      5 BR   UNL     1     -51.755 -44.212 -74.499  0.00  0.00    +0.000 Br
ATOM      6  C   UNL     1     -51.384 -41.604 -75.552  0.00  0.00    +0.000 A 
ATOM      7  C   UNL     1     -51.706 -40.479 -76.305  0.00  0.00    +0.000 A 
ATOM      8  C   UNL     1     -52.863 -40.476 -77.106  0.00  0.00    +0.000 A 
ATOM      9 CL   UNL     1     -53.197 -38.999 -77.937  0.00  0.00    +0.000 Cl
ATOM     10  C   UNL     1     -53.691 -41.616 -77.155  0.00  0.00    +0.000 A 
ATOM     11  C   UNL     1     -54.913 -41.724 -77.992  0.00  0.00    +0.000 A 
ATOM     12  O   UNL     1     -55.039 -41.022 -78.991  0.00  0.00    +0.000 OA
ATOM     13  C   UNL     1     -55.984 -42.736 -77.593  0.00  0.00    +0.000 A 
ATOM     14  H   UNL     1     -54.000 -44.649 -75.834  0.00  0.00    +0.000 HD
ENDROOT
BRANCH   1  15
ATOM     15  S   UNL     1     -56.484 -45.238 -76.337  0.00  0.00    +0.000 S 
ATOM     16  O   UNL     1     -55.480 -46.092 -75.613  0.00  0.00    +0.000 OA
BRANCH  15  17
ATOM     17  C   UNL     1     -56.974 -46.097 -77.871  0.00  0.00    +0.000 C 
BRANCH  17  21
ATOM     18  C   UNL     1     -61.294 -48.950 -77.869  0.00  0.00    +0.000 C 
ATOM     19  C   UNL     1     -60.185 -47.972 -77.841  0.00  0.00    +0.000 A 
ATOM     20  C   UNL     1     -58.811 -48.057 -77.841  0.00  0.00    +0.000 A 
ATOM     21  C   UNL     1     -58.356 -46.706 -77.835  0.00  0.00    +0.000 A 
ATOM     22  N   UNL     1     -59.410 -45.872 -77.811  0.00  0.00    +0.000 NA
ATOM     23  O   UNL     1     -60.543 -46.663 -77.819  0.00  0.00    +0.000 OA
ENDBRANCH  17  21
ENDBRANCH  15  17
ENDBRANCH   1  15
BRANCH  13  24
ATOM     24  C   UNL     1     -57.415 -42.379 -77.928  0.00  0.00    +0.000 C 
ATOM     25  O   UNL     1     -57.903 -42.726 -79.003  0.00  0.00    +0.000 OA
BRANCH  24  26
ATOM     26  C   UNL     1     -58.245 -41.529 -76.966  0.00  0.00    +0.000 C 
ATOM     27  C   UNL     1     -57.758 -41.666 -75.525  0.00  0.00    +0.000 C 
ATOM     28  C   UNL     1     -58.270 -40.055 -77.380  0.00  0.00    +0.000 C 
ENDBRANCH  24  26
ENDBRANCH  13  24
TORSDOF 5
ENDMDL
MODEL 9
REMARK VINA RESULT:    -6.146      3.717      7.294
REMARK INTER + INTRA:          -8.813
REMARK INTER:                  -7.995
REMARK INTRA:                  -0.817
REMARK UNBOUND:                -0.870
REMARK  Name = 
REMARK  8 active torsions:
REMARK  status: ('A' for Active; 'I' for Inactive)
REMARK    1  A    between atoms: C_1  and  C_2
REMARK    2  A    between atoms: C_4  and  C_5
REMARK    3  A    between atoms: C_5  and  S_6
REMARK    4  A    between atoms: S_6  and  C_8
REMARK    5  A    between atoms: C_20  and  C_21
REMARK    6  A    between atoms: C_21  and  C_23
REMARK    7  A    between atoms: C_23  and  C_24
REMARK    8  A    between atoms: C_23  and  C_25
REMARK                            x       y       z     vdW  Elec       q    Type
REMARK                         _______ _______ _______ _____ _____    ______ ____
ROOT
ATOM      1  C   UNL     1     -55.284 -41.938 -77.854  0.00  0.00    +0.000 A 
ATOM      2  N   UNL     1     -56.571 -42.434 -77.672  0.00  0.00    +0.000 N 
ATOM      3  C   UNL     1     -57.220 -42.364 -76.424  0.00  0.00    +0.000 A 
ATOM      4  C   UNL     1     -58.619 -42.461 -76.300  0.00  0.00    +0.000 A 
ATOM      5 BR   UNL     1     -59.731 -42.531 -77.835  0.00  0.00    +0.000 Br
ATOM      6  C   UNL     1     -59.231 -42.467 -75.044  0.00  0.00    +0.000 A 
ATOM      7  C   UNL     1     -58.455 -42.371 -73.892  0.00  0.00    +0.000 A 
ATOM      8  C   UNL     1     -57.056 -42.265 -73.994  0.00  0.00    +0.000 A 
ATOM      9 CL   UNL     1     -56.207 -42.079 -72.502  0.00  0.00    +0.000 Cl
ATOM     10  C   UNL     1     -56.438 -42.266 -75.261  0.00  0.00    +0.000 A 
ATOM     11  C   UNL     1     -54.969 -42.193 -75.474  0.00  0.00    +0.000 A 
ATOM     12  O   UNL     1     -54.201 -42.553 -74.587  0.00  0.00    +0.000 OA
ATOM     13  C   UNL     1     -54.451 -41.684 -76.816  0.00  0.00    +0.000 A 
ATOM     14  H   UNL     1     -57.175 -42.344 -78.500  0.00  0.00    +0.000 HD
ENDROOT
BRANCH   1  15
ATOM     15  S   UNL     1     -54.979 -41.487 -79.604  0.00  0.00    +0.000 S 
ATOM     16  O   UNL     1     -54.806 -39.993 -79.565  0.00  0.00    +0.000 OA
BRANCH  15  17
ATOM     17  C   UNL     1     -56.569 -41.863 -80.416  0.00  0.00    +0.000 C 
BRANCH  17  21
ATOM     18  C   UNL     1     -56.118 -39.982 -85.218  0.00  0.00    +0.000 C 
ATOM     19  C   UNL     1     -56.451 -40.529 -83.885  0.00  0.00    +0.000 A 
ATOM     20  C   UNL     1     -55.722 -40.979 -82.807  0.00  0.00    +0.000 A 
ATOM     21  C   UNL     1     -56.693 -41.339 -81.828  0.00  0.00    +0.000 A 
ATOM     22  N   UNL     1     -57.929 -41.131 -82.314  0.00  0.00    +0.000 NA
ATOM     23  O   UNL     1     -57.773 -40.625 -83.590  0.00  0.00    +0.000 OA
ENDBRANCH  17  21
ENDBRANCH  15  17
ENDBRANCH   1  15
BRANCH  13  24
ATOM     24  C   UNL     1     -53.130 -40.948 -76.800  0.00  0.00    +0.000 C 
ATOM     25  O   UNL     1     -53.105 -39.723 -76.689  0.00  0.00    +0.000 OA
BRANCH  24  26
ATOM     26  C   UNL     1     -51.818 -41.711 -76.988  0.00  0.00    +0.000 C 
ATOM     27  C   UNL     1     -51.404 -41.771 -78.456  0.00  0.00    +0.000 C 
ATOM     28  C   UNL     1     -50.687 -41.122 -76.141  0.00  0.00    +0.000 C 
ENDBRANCH  24  26
ENDBRANCH  13  24
TORSDOF 5
ENDMDL
MODEL 10
REMARK VINA RESULT:    -6.132      4.288      6.620
REMARK INTER + INTRA:          -8.794
REMARK INTER:                  -7.910
REMARK INTRA:                  -0.883
REMARK UNBOUND:                -0.870
REMARK  Name = 
REMARK  8 active torsions:
REMARK  status: ('A' for Active; 'I' for Inactive)
REMARK    1  A    between atoms: C_1  and  C_2
REMARK    2  A    between atoms: C_4  and  C_5
REMARK    3  A    between atoms: C_5  and  S_6
REMARK    4  A    between atoms: S_6  and  C_8
REMARK    5  A    between atoms: C_20  and  C_21
REMARK    6  A    between atoms: C_21  and  C_23
REMARK    7  A    between atoms: C_23  and  C_24
REMARK    8  A    between atoms: C_23  and  C_25
REMARK                            x       y       z     vdW  Elec       q    Type
REMARK                         _______ _______ _______ _____ _____    ______ ____
ROOT
ATOM      1  C   UNL     1     -58.155 -44.024 -77.339  0.00  0.00    +0.000 A 
ATOM      2  N   UNL     1     -58.167 -45.239 -78.017  0.00  0.00    +0.000 N 
ATOM      3  C   UNL     1     -57.440 -46.352 -77.551  0.00  0.00    +0.000 A 
ATOM      4  C   UNL     1     -57.747 -47.667 -77.949  0.00  0.00    +0.000 A 
ATOM      5 BR   UNL     1     -59.272 -48.032 -79.017  0.00  0.00    +0.000 Br
ATOM      6  C   UNL     1     -56.961 -48.746 -77.534  0.00  0.00    +0.000 A 
ATOM      7  C   UNL     1     -55.860 -48.527 -76.711  0.00  0.00    +0.000 A 
ATOM      8  C   UNL     1     -55.541 -47.221 -76.295  0.00  0.00    +0.000 A 
ATOM      9 CL   UNL     1     -54.197 -47.083 -75.219  0.00  0.00    +0.000 Cl
ATOM     10  C   UNL     1     -56.329 -46.132 -76.720  0.00  0.00    +0.000 A 
ATOM     11  C   UNL     1     -56.057 -44.715 -76.365  0.00  0.00    +0.000 A 
ATOM     12  O   UNL     1     -54.922 -44.367 -76.053  0.00  0.00    +0.000 OA
ATOM     13  C   UNL     1     -57.208 -43.715 -76.420  0.00  0.00    +0.000 A 
ATOM     14  H   UNL     1     -59.059 -45.446 -78.486  0.00  0.00    +0.000 HD
ENDROOT
BRANCH   1  15
ATOM     15  S   UNL     1     -59.664 -43.044 -77.689  0.00  0.00    +0.000 S 
ATOM     16  O   UNL     1     -60.543 -43.999 -78.450  0.00  0.00    +0.000 OA
BRANCH  15  17
ATOM     17  C   UNL     1     -59.071 -41.760 -78.842  0.00  0.00    +0.000 C 
BRANCH  17  21
ATOM     18  C   UNL     1     -61.808 -37.366 -78.846  0.00  0.00    +0.000 C 
ATOM     19  C   UNL     1     -61.159 -38.687 -78.990  0.00  0.00    +0.000 A 
ATOM     20  C   UNL     1     -60.011 -39.268 -78.499  0.00  0.00    +0.000 A 
ATOM     21  C   UNL     1     -60.014 -40.593 -79.022  0.00  0.00    +0.000 A 
ATOM     22  N   UNL     1     -61.096 -40.775 -79.797  0.00  0.00    +0.000 NA
ATOM     23  O   UNL     1     -61.806 -39.590 -79.771  0.00  0.00    +0.000 OA
ENDBRANCH  17  21
ENDBRANCH  15  17
ENDBRANCH   1  15
BRANCH  13  24
ATOM     24  C   UNL     1     -57.158 -42.566 -75.439  0.00  0.00    +0.000 C 
ATOM     25  O   UNL     1     -56.775 -41.455 -75.806  0.00  0.00    +0.000 OA
BRANCH  24  26
ATOM     26  C   UNL     1     -57.517 -42.788 -73.969  0.00  0.00    +0.000 C 
ATOM     27  C   UNL     1     -56.467 -42.194 -73.034  0.00  0.00    +0.000 C 
ATOM     28  C   UNL     1     -58.904 -42.236 -73.630  0.00  0.00    +0.000 C 
ENDBRANCH  24  26
ENDBRANCH  13  24
TORSDOF 5
ENDMDL
MODEL 11
REMARK VINA RESULT:    -6.100     12.197     14.065
REMARK INTER + INTRA:          -8.753
REMARK INTER:                  -7.599
REMARK INTRA:                  -1.154
REMARK UNBOUND:                -0.870
REMARK  Name = 
REMARK  8 active torsions:
REMARK  status: ('A' for Active; 'I' for Inactive)
REMARK    1  A    between atoms: C_1  and  C_2
REMARK    2  A    between atoms: C_4  and  C_5
REMARK    3  A    between atoms: C_5  and  S_6
REMARK    4  A    between atoms: S_6  and  C_8
REMARK    5  A    between atoms: C_20  and  C_21
REMARK    6  A    between atoms: C_21  and  C_23
REMARK    7  A    between atoms: C_23  and  C_24
REMARK    8  A    between atoms: C_23  and  C_25
REMARK                            x       y       z     vdW  Elec       q    Type
REMARK                         _______ _______ _______ _____ _____    ______ ____
ROOT
ATOM      1  C   UNL     1     -55.511 -41.617 -63.116  0.00  0.00    +0.000 A 
ATOM      2  N   UNL     1     -54.944 -42.878 -62.959  0.00  0.00    +0.000 N 
ATOM      3  C   UNL     1     -53.573 -43.105 -63.191  0.00  0.00    +0.000 A 
ATOM      4  C   UNL     1     -52.898 -44.219 -62.657  0.00  0.00    +0.000 A 
ATOM      5 BR   UNL     1     -53.764 -45.399 -61.451  0.00  0.00    +0.000 Br
ATOM      6  C   UNL     1     -51.557 -44.463 -62.968  0.00  0.00    +0.000 A 
ATOM      7  C   UNL     1     -50.870 -43.595 -63.811  0.00  0.00    +0.000 A 
ATOM      8  C   UNL     1     -51.525 -42.472 -64.350  0.00  0.00    +0.000 A 
ATOM      9 CL   UNL     1     -50.552 -41.430 -65.324  0.00  0.00    +0.000 Cl
ATOM     10  C   UNL     1     -52.880 -42.230 -64.043  0.00  0.00    +0.000 A 
ATOM     11  C   UNL     1     -53.668 -41.093 -64.585  0.00  0.00    +0.000 A 
ATOM     12  O   UNL     1     -53.333 -40.559 -65.638  0.00  0.00    +0.000 OA
ATOM     13  C   UNL     1     -54.903 -40.631 -63.817  0.00  0.00    +0.000 A 
ATOM     14  H   UNL     1     -55.375 -43.439 -62.212  0.00  0.00    +0.000 HD
ENDROOT
BRANCH   1  15
ATOM     15  S   UNL     1     -57.022 -41.429 -62.096  0.00  0.00    +0.000 S 
ATOM     16  O   UNL     1     -56.742 -40.209 -61.261  0.00  0.00    +0.000 OA
BRANCH  15  17
ATOM     17  C   UNL     1     -56.980 -42.894 -61.010  0.00  0.00    +0.000 C 
BRANCH  17  21
ATOM     18  C   UNL     1     -54.259 -42.324 -56.643  0.00  0.00    +0.000 C 
ATOM     19  C   UNL     1     -55.197 -42.413 -57.783  0.00  0.00    +0.000 A 
ATOM     20  C   UNL     1     -55.079 -42.712 -59.121  0.00  0.00    +0.000 A 
ATOM     21  C   UNL     1     -56.406 -42.642 -59.636  0.00  0.00    +0.000 A 
ATOM     22  N   UNL     1     -57.257 -42.299 -58.654  0.00  0.00    +0.000 NA
ATOM     23  O   UNL     1     -56.502 -42.162 -57.504  0.00  0.00    +0.000 OA
ENDBRANCH  17  21
ENDBRANCH  15  17
ENDBRANCH   1  15
BRANCH  13  24
ATOM     24  C   UNL     1     -55.248 -39.161 -63.907  0.00  0.00    +0.000 C 
ATOM     25  O   UNL     1     -56.241 -38.796 -64.535  0.00  0.00    +0.000 OA
BRANCH  24  26
ATOM     26  C   UNL     1     -54.331 -38.112 -63.277  0.00  0.00    +0.000 C 
ATOM     27  C   UNL     1     -53.622 -37.271 -64.335  0.00  0.00    +0.000 C 
ATOM     28  C   UNL     1     -55.084 -37.208 -62.297  0.00  0.00    +0.000 C 
ENDBRANCH  24  26
ENDBRANCH  13  24
TORSDOF 5
ENDMDL
MODEL 12
REMARK VINA RESULT:    -5.942     25.321     27.281
REMARK INTER + INTRA:          -8.549
REMARK INTER:                  -7.579
REMARK INTRA:                  -0.969
REMARK UNBOUND:                -0.870
REMARK  Name = 
REMARK  8 active torsions:
REMARK  status: ('A' for Active; 'I' for Inactive)
REMARK    1  A    between atoms: C_1  and  C_2
REMARK    2  A    between atoms: C_4  and  C_5
REMARK    3  A    between atoms: C_5  and  S_6
REMARK    4  A    between atoms: S_6  and  C_8
REMARK    5  A    between atoms: C_20  and  C_21
REMARK    6  A    between atoms: C_21  and  C_23
REMARK    7  A    between atoms: C_23  and  C_24
REMARK    8  A    between atoms: C_23  and  C_25
REMARK                            x       y       z     vdW  Elec       q    Type
REMARK                         _______ _______ _______ _____ _____    ______ ____
ROOT
ATOM      1  C   UNL     1     -66.166 -51.458 -53.567  0.00  0.00    +0.000 A 
ATOM      2  N   UNL     1     -66.627 -50.699 -54.639  0.00  0.00    +0.000 N 
ATOM      3  C   UNL     1     -67.893 -50.923 -55.212  0.00  0.00    +0.000 A 
ATOM      4  C   UNL     1     -68.550 -49.945 -55.984  0.00  0.00    +0.000 A 
ATOM      5 BR   UNL     1     -67.832 -48.198 -56.161  0.00  0.00    +0.000 Br
ATOM      6  C   UNL     1     -69.770 -50.221 -56.607  0.00  0.00    +0.000 A 
ATOM      7  C   UNL     1     -70.355 -51.476 -56.463  0.00  0.00    +0.000 A 
ATOM      8  C   UNL     1     -69.720 -52.464 -55.690  0.00  0.00    +0.000 A 
ATOM      9 CL   UNL     1     -70.575 -53.955 -55.526  0.00  0.00    +0.000 Cl
ATOM     10  C   UNL     1     -68.484 -52.188 -55.068  0.00  0.00    +0.000 A 
ATOM     11  C   UNL     1     -67.719 -53.172 -54.260  0.00  0.00    +0.000 A 
ATOM     12  O   UNL     1     -67.886 -54.375 -54.435  0.00  0.00    +0.000 OA
ATOM     13  C   UNL     1     -66.716 -52.651 -53.235  0.00  0.00    +0.000 A 
ATOM     14  H   UNL     1     -66.302 -49.722 -54.628  0.00  0.00    +0.000 HD
ENDROOT
BRANCH   1  15
ATOM     15  S   UNL     1     -64.918 -50.546 -52.584  0.00  0.00    +0.000 S 
ATOM     16  O   UNL     1     -65.738 -49.784 -51.579  0.00  0.00    +0.000 OA
BRANCH  15  17
ATOM     17  C   UNL     1     -64.226 -49.358 -53.784  0.00  0.00    +0.000 C 
BRANCH  17  21
ATOM     18  C   UNL     1     -63.858 -44.672 -51.615  0.00  0.00    +0.000 C 
ATOM     19  C   UNL     1     -64.087 -45.920 -52.374  0.00  0.00    +0.000 A 
ATOM     20  C   UNL     1     -63.577 -47.198 -52.325  0.00  0.00    +0.000 A 
ATOM     21  C   UNL     1     -64.275 -47.915 -53.340  0.00  0.00    +0.000 A 
ATOM     22  N   UNL     1     -65.135 -47.094 -53.968  0.00  0.00    +0.000 NA
ATOM     23  O   UNL     1     -65.017 -45.858 -53.362  0.00  0.00    +0.000 OA
ENDBRANCH  17  21
ENDBRANCH  15  17
ENDBRANCH   1  15
BRANCH  13  24
ATOM     24  C   UNL     1     -66.506 -53.496 -51.998  0.00  0.00    +0.000 C 
ATOM     25  O   UNL     1     -65.648 -54.377 -51.989  0.00  0.00    +0.000 OA
BRANCH  24  26
ATOM     26  C   UNL     1     -67.402 -53.308 -50.773  0.00  0.00    +0.000 C 
ATOM     27  C   UNL     1     -68.313 -52.092 -50.919  0.00  0.00    +0.000 C 
ATOM     28  C   UNL     1     -68.231 -54.559 -50.473  0.00  0.00    +0.000 C 
ENDBRANCH  24  26
ENDBRANCH  13  24
TORSDOF 5
ENDMDL
MODEL 13
REMARK VINA RESULT:    -5.914      3.341      4.754
REMARK INTER + INTRA:          -8.513
REMARK INTER:                  -7.723
REMARK INTRA:                  -0.790
REMARK UNBOUND:                -0.870
REMARK  Name = 
REMARK  8 active torsions:
REMARK  status: ('A' for Active; 'I' for Inactive)
REMARK    1  A    between atoms: C_1  and  C_2
REMARK    2  A    between atoms: C_4  and  C_5
REMARK    3  A    between atoms: C_5  and  S_6
REMARK    4  A    between atoms: S_6  and  C_8
REMARK    5  A    between atoms: C_20  and  C_21
REMARK    6  A    between atoms: C_21  and  C_23
REMARK    7  A    between atoms: C_23  and  C_24
REMARK    8  A    between atoms: C_23  and  C_25
REMARK                            x       y       z     vdW  Elec       q    Type
REMARK                         _______ _______ _______ _____ _____    ______ ____
ROOT
ATOM      1  C   UNL     1     -54.758 -43.087 -79.910  0.00  0.00    +0.000 A 
ATOM      2  N   UNL     1     -54.788 -43.704 -78.663  0.00  0.00    +0.000 N 
ATOM      3  C   UNL     1     -54.010 -43.233 -77.587  0.00  0.00    +0.000 A 
ATOM      4  C   UNL     1     -54.315 -43.547 -76.249  0.00  0.00    +0.000 A 
ATOM      5 BR   UNL     1     -55.896 -44.496 -75.806  0.00  0.00    +0.000 Br
ATOM      6  C   UNL     1     -53.483 -43.132 -75.206  0.00  0.00    +0.000 A 
ATOM      7  C   UNL     1     -52.337 -42.392 -75.484  0.00  0.00    +0.000 A 
ATOM      8  C   UNL     1     -52.018 -42.061 -76.814  0.00  0.00    +0.000 A 
ATOM      9 CL   UNL     1     -50.613 -41.081 -77.028  0.00  0.00    +0.000 Cl
ATOM     10  C   UNL     1     -52.854 -42.486 -77.867  0.00  0.00    +0.000 A 
ATOM     11  C   UNL     1     -52.589 -42.217 -79.304  0.00  0.00    +0.000 A 
ATOM     12  O   UNL     1     -51.444 -41.995 -79.686  0.00  0.00    +0.000 OA
ATOM     13  C   UNL     1     -53.761 -42.247 -80.280  0.00  0.00    +0.000 A 
ATOM     14  H   UNL     1     -55.704 -44.104 -78.418  0.00  0.00    +0.000 HD
ENDROOT
BRANCH   1  15
ATOM     15  S   UNL     1     -56.305 -43.386 -80.845  0.00  0.00    +0.000 S 
ATOM     16  O   UNL     1     -55.894 -43.220 -82.283  0.00  0.00    +0.000 OA
BRANCH  15  17
ATOM     17  C   UNL     1     -57.358 -41.972 -80.378  0.00  0.00    +0.000 C 
BRANCH  17  21
ATOM     18  C   UNL     1     -59.001 -42.075 -75.469  0.00  0.00    +0.000 C 
ATOM     19  C   UNL     1     -58.375 -41.928 -76.802  0.00  0.00    +0.000 A 
ATOM     20  C   UNL     1     -58.599 -42.468 -78.048  0.00  0.00    +0.000 A 
ATOM     21  C   UNL     1     -57.632 -41.855 -78.897  0.00  0.00    +0.000 A 
ATOM     22  N   UNL     1     -56.867 -41.013 -78.181  0.00  0.00    +0.000 NA
ATOM     23  O   UNL     1     -57.335 -41.060 -76.881  0.00  0.00    +0.000 OA
ENDBRANCH  17  21
ENDBRANCH  15  17
ENDBRANCH   1  15
BRANCH  13  24
ATOM     24  C   UNL     1     -53.672 -41.327 -81.477  0.00  0.00    +0.000 C 
ATOM     25  O   UNL     1     -54.051 -40.160 -81.390  0.00  0.00    +0.000 OA
BRANCH  24  26
ATOM     26  C   UNL     1     -53.174 -41.856 -82.822  0.00  0.00    +0.000 C 
ATOM     27  C   UNL     1     -53.763 -41.072 -83.992  0.00  0.00    +0.000 C 
ATOM     28  C   UNL     1     -51.645 -41.862 -82.903  0.00  0.00    +0.000 C 
ENDBRANCH  24  26
ENDBRANCH  13  24
TORSDOF 5
ENDMDL
MODEL 14
REMARK VINA RESULT:    -5.894      3.917      5.765
REMARK INTER + INTRA:          -8.487
REMARK INTER:                  -7.493
REMARK INTRA:                  -0.994
REMARK UNBOUND:                -0.870
REMARK  Name = 
REMARK  8 active torsions:
REMARK  status: ('A' for Active; 'I' for Inactive)
REMARK    1  A    between atoms: C_1  and  C_2
REMARK    2  A    between atoms: C_4  and  C_5
REMARK    3  A    between atoms: C_5  and  S_6
REMARK    4  A    between atoms: S_6  and  C_8
REMARK    5  A    between atoms: C_20  and  C_21
REMARK    6  A    between atoms: C_21  and  C_23
REMARK    7  A    between atoms: C_23  and  C_24
REMARK    8  A    between atoms: C_23  and  C_25
REMARK                            x       y       z     vdW  Elec       q    Type
REMARK                         _______ _______ _______ _____ _____    ______ ____
ROOT
ATOM      1  C   UNL     1     -55.272 -42.222 -78.538  0.00  0.00    +0.000 A 
ATOM      2  N   UNL     1     -55.958 -43.016 -79.453  0.00  0.00    +0.000 N 
ATOM      3  C   UNL     1     -55.279 -43.791 -80.414  0.00  0.00    +0.000 A 
ATOM      4  C   UNL     1     -55.884 -44.890 -81.053  0.00  0.00    +0.000 A 
ATOM      5 BR   UNL     1     -57.605 -45.495 -80.534  0.00  0.00    +0.000 Br
ATOM      6  C   UNL     1     -55.215 -45.593 -82.059  0.00  0.00    +0.000 A 
ATOM      7  C   UNL     1     -53.931 -45.211 -82.438  0.00  0.00    +0.000 A 
ATOM      8  C   UNL     1     -53.307 -44.120 -81.806  0.00  0.00    +0.000 A 
ATOM      9 CL   UNL     1     -51.689 -43.786 -82.310  0.00  0.00    +0.000 Cl
ATOM     10  C   UNL     1     -53.984 -43.406 -80.796  0.00  0.00    +0.000 A 
ATOM     11  C   UNL     1     -53.425 -42.223 -80.093  0.00  0.00    +0.000 A 
ATOM     12  O   UNL     1     -52.551 -41.546 -80.627  0.00  0.00    +0.000 OA
ATOM     13  C   UNL     1     -53.978 -41.864 -78.717  0.00  0.00    +0.000 A 
ATOM     14  H   UNL     1     -56.832 -43.418 -79.084  0.00  0.00    +0.000 HD
ENDROOT
BRANCH   1  15
ATOM     15  S   UNL     1     -56.262 -41.936 -77.023  0.00  0.00    +0.000 S 
ATOM     16  O   UNL     1     -56.349 -40.437 -76.929  0.00  0.00    +0.000 OA
BRANCH  15  17
ATOM     17  C   UNL     1     -55.169 -42.536 -75.690  0.00  0.00    +0.000 C 
BRANCH  17  21
ATOM     18  C   UNL     1     -55.132 -47.710 -75.857  0.00  0.00    +0.000 C 
ATOM     19  C   UNL     1     -54.936 -46.245 -75.793  0.00  0.00    +0.000 A 
ATOM     20  C   UNL     1     -55.751 -45.146 -75.940  0.00  0.00    +0.000 A 
ATOM     21  C   UNL     1     -54.904 -44.023 -75.716  0.00  0.00    +0.000 A 
ATOM     22  N   UNL     1     -53.650 -44.441 -75.470  0.00  0.00    +0.000 NA
ATOM     23  O   UNL     1     -53.676 -45.822 -75.516  0.00  0.00    +0.000 OA
ENDBRANCH  17  21
ENDBRANCH  15  17
ENDBRANCH   1  15
BRANCH  13  24
ATOM     24  C   UNL     1     -53.018 -41.210 -77.748  0.00  0.00    +0.000 C 
ATOM     25  O   UNL     1     -52.122 -41.870 -77.224  0.00  0.00    +0.000 OA
BRANCH  24  26
ATOM     26  C   UNL     1     -53.193 -39.742 -77.360  0.00  0.00    +0.000 C 
ATOM     27  C   UNL     1     -51.946 -39.183 -76.680  0.00  0.00    +0.000 C 
ATOM     28  C   UNL     1     -53.577 -38.874 -78.561  0.00  0.00    +0.000 C 
ENDBRANCH  24  26
ENDBRANCH  13  24
TORSDOF 5
ENDMDL
MODEL 15
REMARK VINA RESULT:    -5.884     21.797     25.475
REMARK INTER + INTRA:          -8.474
REMARK INTER:                  -7.336
REMARK INTRA:                  -1.138
REMARK UNBOUND:                -0.870
REMARK  Name = 
REMARK  8 active torsions:
REMARK  status: ('A' for Active; 'I' for Inactive)
REMARK    1  A    between atoms: C_1  and  C_2
REMARK    2  A    between atoms: C_4  and  C_5
REMARK    3  A    between atoms: C_5  and  S_6
REMARK    4  A    between atoms: S_6  and  C_8
REMARK    5  A    between atoms: C_20  and  C_21
REMARK    6  A    between atoms: C_21  and  C_23
REMARK    7  A    between atoms: C_23  and  C_24
REMARK    8  A    between atoms: C_23  and  C_25
REMARK                            x       y       z     vdW  Elec       q    Type
REMARK                         _______ _______ _______ _____ _____    ______ ____
ROOT
ATOM      1  C   UNL     1     -67.113 -49.746 -55.184  0.00  0.00    +0.000 A 
ATOM      2  N   UNL     1     -67.711 -49.180 -56.306  0.00  0.00    +0.000 N 
ATOM      3  C   UNL     1     -68.965 -49.617 -56.775  0.00  0.00    +0.000 A 
ATOM      4  C   UNL     1     -69.770 -48.823 -57.613  0.00  0.00    +0.000 A 
ATOM      5 BR   UNL     1     -69.281 -47.039 -58.031  0.00  0.00    +0.000 Br
ATOM      6  C   UNL     1     -70.975 -49.312 -58.127  0.00  0.00    +0.000 A 
ATOM      7  C   UNL     1     -71.394 -50.600 -57.807  0.00  0.00    +0.000 A 
ATOM      8  C   UNL     1     -70.608 -51.407 -56.964  0.00  0.00    +0.000 A 
ATOM      9 CL   UNL     1     -71.266 -52.957 -56.581  0.00  0.00    +0.000 Cl
ATOM     10  C   UNL     1     -69.389 -50.916 -56.452  0.00  0.00    +0.000 A 
ATOM     11  C   UNL     1     -68.474 -51.700 -55.583  0.00  0.00    +0.000 A 
ATOM     12  O   UNL     1     -68.500 -52.926 -55.610  0.00  0.00    +0.000 OA
ATOM     13  C   UNL     1     -67.497 -50.945 -54.686  0.00  0.00    +0.000 A 
ATOM     14  H   UNL     1     -67.508 -48.178 -56.426  0.00  0.00    +0.000 HD
ENDROOT
BRANCH   1  15
ATOM     15  S   UNL     1     -65.943 -48.582 -54.387  0.00  0.00    +0.000 S 
ATOM     16  O   UNL     1     -66.547 -48.337 -53.031  0.00  0.00    +0.000 OA
BRANCH  15  17
ATOM     17  C   UNL     1     -66.120 -47.062 -55.382  0.00  0.00    +0.000 C 
BRANCH  17  21
ATOM     18  C   UNL     1     -62.051 -46.220 -58.470  0.00  0.00    +0.000 C 
ATOM     19  C   UNL     1     -63.312 -46.524 -57.759  0.00  0.00    +0.000 A 
ATOM     20  C   UNL     1     -63.705 -46.552 -56.440  0.00  0.00    +0.000 A 
ATOM     21  C   UNL     1     -65.086 -46.900 -56.471  0.00  0.00    +0.000 A 
ATOM     22  N   UNL     1     -65.479 -47.088 -57.743  0.00  0.00    +0.000 NA
ATOM     23  O   UNL     1     -64.375 -46.849 -58.539  0.00  0.00    +0.000 OA
ENDBRANCH  17  21
ENDBRANCH  15  17
ENDBRANCH   1  15
BRANCH  13  24
ATOM     24  C   UNL     1     -67.130 -51.605 -53.375  0.00  0.00    +0.000 C 
ATOM     25  O   UNL     1     -67.909 -51.566 -52.423  0.00  0.00    +0.000 OA
BRANCH  24  26
ATOM     26  C   UNL     1     -65.763 -52.267 -53.199  0.00  0.00    +0.000 C 
ATOM     27  C   UNL     1     -64.909 -51.536 -52.166  0.00  0.00    +0.000 C 
ATOM     28  C   UNL     1     -65.887 -53.748 -52.834  0.00  0.00    +0.000 C 
ENDBRANCH  24  26
ENDBRANCH  13  24
TORSDOF 5
ENDMDL
MODEL 16
REMARK VINA RESULT:    -5.792      9.685     12.208
REMARK INTER + INTRA:          -8.355
REMARK INTER:                  -6.895
REMARK INTRA:                  -1.460
REMARK UNBOUND:                -0.870
REMARK  Name = 
REMARK  8 active torsions:
REMARK  status: ('A' for Active; 'I' for Inactive)
REMARK    1  A    between atoms: C_1  and  C_2
REMARK    2  A    between atoms: C_4  and  C_5
REMARK    3  A    between atoms: C_5  and  S_6
REMARK    4  A    between atoms: S_6  and  C_8
REMARK    5  A    between atoms: C_20  and  C_21
REMARK    6  A    between atoms: C_21  and  C_23
REMARK    7  A    between atoms: C_23  and  C_24
REMARK    8  A    between atoms: C_23  and  C_25
REMARK                            x       y       z     vdW  Elec       q    Type
REMARK                         _______ _______ _______ _____ _____    ______ ____
ROOT
ATOM      1  C   UNL     1     -66.115 -43.639 -70.648  0.00  0.00    +0.000 A 
ATOM      2  N   UNL     1     -67.306 -43.645 -71.367  0.00  0.00    +0.000 N 
ATOM      3  C   UNL     1     -67.341 -43.974 -72.737  0.00  0.00    +0.000 A 
ATOM      4  C   UNL     1     -68.522 -44.392 -73.377  0.00  0.00    +0.000 A 
ATOM      5 BR   UNL     1     -70.113 -44.696 -72.389  0.00  0.00    +0.000 Br
ATOM      6  C   UNL     1     -68.546 -44.636 -74.753  0.00  0.00    +0.000 A 
ATOM      7  C   UNL     1     -67.389 -44.471 -75.508  0.00  0.00    +0.000 A 
ATOM      8  C   UNL     1     -66.196 -44.061 -74.886  0.00  0.00    +0.000 A 
ATOM      9 CL   UNL     1     -64.810 -43.960 -75.912  0.00  0.00    +0.000 Cl
ATOM     10  C   UNL     1     -66.173 -43.807 -73.499  0.00  0.00    +0.000 A 
ATOM     11  C   UNL     1     -64.975 -43.340 -72.755  0.00  0.00    +0.000 A 
ATOM     12  O   UNL     1     -64.078 -42.746 -73.346  0.00  0.00    +0.000 OA
ATOM     13  C   UNL     1     -64.904 -43.597 -71.253  0.00  0.00    +0.000 A 
ATOM     14  H   UNL     1     -68.126 -43.930 -70.814  0.00  0.00    +0.000 HD
ENDROOT
BRANCH   1  15
ATOM     15  S   UNL     1     -66.408 -43.909 -68.860  0.00  0.00    +0.000 S 
ATOM     16  O   UNL     1     -67.591 -44.839 -68.826  0.00  0.00    +0.000 OA
BRANCH  15  17
ATOM     17  C   UNL     1     -66.947 -42.269 -68.270  0.00  0.00    +0.000 C 
BRANCH  17  21
ATOM     18  C   UNL     1     -63.352 -38.619 -69.020  0.00  0.00    +0.000 C 
ATOM     19  C   UNL     1     -64.324 -39.655 -68.606  0.00  0.00    +0.000 A 
ATOM     20  C   UNL     1     -65.347 -40.334 -69.227  0.00  0.00    +0.000 A 
ATOM     21  C   UNL     1     -65.856 -41.224 -68.237  0.00  0.00    +0.000 A 
ATOM     22  N   UNL     1     -65.179 -41.060 -67.087  0.00  0.00    +0.000 NA
ATOM     23  O   UNL     1     -64.226 -40.088 -67.323  0.00  0.00    +0.000 OA
ENDBRANCH  17  21
ENDBRANCH  15  17
ENDBRANCH   1  15
BRANCH  13  24
ATOM     24  C   UNL     1     -63.526 -43.805 -70.664  0.00  0.00    +0.000 C 
ATOM     25  O   UNL     1     -63.036 -44.933 -70.619  0.00  0.00    +0.000 OA
BRANCH  24  26
ATOM     26  C   UNL     1     -62.759 -42.629 -70.058  0.00  0.00    +0.000 C 
ATOM     27  C   UNL     1     -62.381 -42.889 -68.603  0.00  0.00    +0.000 C 
ATOM     28  C   UNL     1     -61.513 -42.277 -70.876  0.00  0.00    +0.000 C 
ENDBRANCH  24  26
ENDBRANCH  13  24
TORSDOF 5
ENDMDL
MODEL 17
REMARK VINA RESULT:    -5.692     20.935     24.941
REMARK INTER + INTRA:          -8.226
REMARK INTER:                  -7.201
REMARK INTRA:                  -1.025
REMARK UNBOUND:                -0.870
REMARK  Name = 
REMARK  8 active torsions:
REMARK  status: ('A' for Active; 'I' for Inactive)
REMARK    1  A    between atoms: C_1  and  C_2
REMARK    2  A    between atoms: C_4  and  C_5
REMARK    3  A    between atoms: C_5  and  S_6
REMARK    4  A    between atoms: S_6  and  C_8
REMARK    5  A    between atoms: C_20  and  C_21
REMARK    6  A    between atoms: C_21  and  C_23
REMARK    7  A    between atoms: C_23  and  C_24
REMARK    8  A    between atoms: C_23  and  C_25
REMARK                            x       y       z     vdW  Elec       q    Type
REMARK                         _______ _______ _______ _____ _____    ______ ____
ROOT
ATOM      1  C   UNL     1     -64.997 -47.356 -54.512  0.00  0.00    +0.000 A 
ATOM      2  N   UNL     1     -65.771 -48.183 -55.320  0.00  0.00    +0.000 N 
ATOM      3  C   UNL     1     -66.345 -49.371 -54.827  0.00  0.00    +0.000 A 
ATOM      4  C   UNL     1     -67.439 -49.993 -55.458  0.00  0.00    +0.000 A 
ATOM      5 BR   UNL     1     -68.313 -49.172 -56.928  0.00  0.00    +0.000 Br
ATOM      6  C   UNL     1     -67.938 -51.213 -54.994  0.00  0.00    +0.000 A 
ATOM      7  C   UNL     1     -67.356 -51.826 -53.889  0.00  0.00    +0.000 A 
ATOM      8  C   UNL     1     -66.266 -51.218 -53.239  0.00  0.00    +0.000 A 
ATOM      9 CL   UNL     1     -65.674 -52.037 -51.839  0.00  0.00    +0.000 Cl
ATOM     10  C   UNL     1     -65.757 -49.991 -53.712  0.00  0.00    +0.000 A 
ATOM     11  C   UNL     1     -64.593 -49.285 -53.118  0.00  0.00    +0.000 A 
ATOM     12  O   UNL     1     -63.756 -49.913 -52.476  0.00  0.00    +0.000 OA
ATOM     13  C   UNL     1     -64.457 -47.783 -53.345  0.00  0.00    +0.000 A 
ATOM     14  H   UNL     1     -66.319 -47.677 -56.030  0.00  0.00    +0.000 HD
ENDROOT
BRANCH   1  15
ATOM     15  S   UNL     1     -65.003 -45.627 -55.117  0.00  0.00    +0.000 S 
ATOM     16  O   UNL     1     -66.033 -44.948 -54.255  0.00  0.00    +0.000 OA
BRANCH  15  17
ATOM     17  C   UNL     1     -65.674 -45.777 -56.808  0.00  0.00    +0.000 C 
BRANCH  17  21
ATOM     18  C   UNL     1     -61.542 -46.658 -59.800  0.00  0.00    +0.000 C 
ATOM     19  C   UNL     1     -62.834 -46.419 -59.119  0.00  0.00    +0.000 A 
ATOM     20  C   UNL     1     -63.238 -46.304 -57.809  0.00  0.00    +0.000 A 
ATOM     21  C   UNL     1     -64.637 -46.043 -57.874  0.00  0.00    +0.000 A 
ATOM     22  N   UNL     1     -65.038 -46.027 -59.157  0.00  0.00    +0.000 NA
ATOM     23  O   UNL     1     -63.914 -46.258 -59.926  0.00  0.00    +0.000 OA
ENDBRANCH  17  21
ENDBRANCH  15  17
ENDBRANCH   1  15
BRANCH  13  24
ATOM     24  C   UNL     1     -63.791 -46.987 -52.245  0.00  0.00    +0.000 C 
ATOM     25  O   UNL     1     -62.690 -46.471 -52.434  0.00  0.00    +0.000 OA
BRANCH  24  26
ATOM     26  C   UNL     1     -64.448 -46.871 -50.869  0.00  0.00    +0.000 C 
ATOM     27  C   UNL     1     -63.860 -45.720 -50.056  0.00  0.00    +0.000 C 
ATOM     28  C   UNL     1     -65.968 -46.726 -50.971  0.00  0.00    +0.000 C 
ENDBRANCH  24  26
ENDBRANCH  13  24
TORSDOF 5
ENDMDL
MODEL 18
REMARK VINA RESULT:    -5.645     14.437     17.664
REMARK INTER + INTRA:          -8.164
REMARK INTER:                  -7.211
REMARK INTRA:                  -0.953
REMARK UNBOUND:                -0.870
REMARK  Name = 
REMARK  8 active torsions:
REMARK  status: ('A' for Active; 'I' for Inactive)
REMARK    1  A    between atoms: C_1  and  C_2
REMARK    2  A    between atoms: C_4  and  C_5
REMARK    3  A    between atoms: C_5  and  S_6
REMARK    4  A    between atoms: S_6  and  C_8
REMARK    5  A    between atoms: C_20  and  C_21
REMARK    6  A    between atoms: C_21  and  C_23
REMARK    7  A    between atoms: C_23  and  C_24
REMARK    8  A    between atoms: C_23  and  C_25
REMARK                            x       y       z     vdW  Elec       q    Type
REMARK                         _______ _______ _______ _____ _____    ______ ____
ROOT
ATOM      1  C   UNL     1     -57.871 -42.320 -58.732  0.00  0.00    +0.000 A 
ATOM      2  N   UNL     1     -57.893 -42.074 -60.101  0.00  0.00    +0.000 N 
ATOM      3  C   UNL     1     -56.969 -42.680 -60.975  0.00  0.00    +0.000 A 
ATOM      4  C   UNL     1     -57.208 -42.792 -62.358  0.00  0.00    +0.000 A 
ATOM      5 BR   UNL     1     -58.873 -42.275 -63.105  0.00  0.00    +0.000 Br
ATOM      6  C   UNL     1     -56.241 -43.328 -63.214  0.00  0.00    +0.000 A 
ATOM      7  C   UNL     1     -55.023 -43.763 -62.699  0.00  0.00    +0.000 A 
ATOM      8  C   UNL     1     -54.767 -43.667 -61.319  0.00  0.00    +0.000 A 
ATOM      9 CL   UNL     1     -53.252 -44.305 -60.790  0.00  0.00    +0.000 Cl
ATOM     10  C   UNL     1     -55.740 -43.120 -60.457  0.00  0.00    +0.000 A 
ATOM     11  C   UNL     1     -55.554 -42.945 -58.993  0.00  0.00    +0.000 A 
ATOM     12  O   UNL     1     -54.424 -42.862 -58.523  0.00  0.00    +0.000 OA
ATOM     13  C   UNL     1     -56.793 -42.851 -58.108  0.00  0.00    +0.000 A 
ATOM     14  H   UNL     1     -58.836 -41.913 -60.482  0.00  0.00    +0.000 HD
ENDROOT
BRANCH   1  15
ATOM     15  S   UNL     1     -59.517 -42.043 -57.974  0.00  0.00    +0.000 S 
ATOM     16  O   UNL     1     -59.206 -41.299 -56.703  0.00  0.00    +0.000 OA
BRANCH  15  17
ATOM     17  C   UNL     1     -60.066 -43.727 -57.538  0.00  0.00    +0.000 C 
BRANCH  17  21
ATOM     18  C   UNL     1     -61.913 -47.164 -60.940  0.00  0.00    +0.000 C 
ATOM     19  C   UNL     1     -61.385 -46.048 -60.126  0.00  0.00    +0.000 A 
ATOM     20  C   UNL     1     -61.124 -45.856 -58.788  0.00  0.00    +0.000 A 
ATOM     21  C   UNL     1     -60.590 -44.538 -58.700  0.00  0.00    +0.000 A 
ATOM     22  N   UNL     1     -60.559 -43.977 -59.921  0.00  0.00    +0.000 NA
ATOM     23  O   UNL     1     -61.051 -44.920 -60.803  0.00  0.00    +0.000 OA
ENDBRANCH  17  21
ENDBRANCH  15  17
ENDBRANCH   1  15
BRANCH  13  24
ATOM     24  C   UNL     1     -56.664 -43.387 -56.699  0.00  0.00    +0.000 C 
ATOM     25  O   UNL     1     -57.046 -44.526 -56.433  0.00  0.00    +0.000 OA
BRANCH  24  26
ATOM     26  C   UNL     1     -56.120 -42.498 -55.581  0.00  0.00    +0.000 C 
ATOM     27  C   UNL     1     -54.810 -43.038 -55.014  0.00  0.00    +0.000 C 
ATOM     28  C   UNL     1     -55.943 -41.048 -56.038  0.00  0.00    +0.000 C 
ENDBRANCH  24  26
ENDBRANCH  13  24
TORSDOF 5
ENDMDL
MODEL 19
REMARK VINA RESULT:    -5.536     22.577     26.325
REMARK INTER + INTRA:          -8.024
REMARK INTER:                  -6.973
REMARK INTRA:                  -1.051
REMARK UNBOUND:                -0.870
REMARK  Name = 
REMARK  8 active torsions:
REMARK  status: ('A' for Active; 'I' for Inactive)
REMARK    1  A    between atoms: C_1  and  C_2
REMARK    2  A    between atoms: C_4  and  C_5
REMARK    3  A    between atoms: C_5  and  S_6
REMARK    4  A    between atoms: S_6  and  C_8
REMARK    5  A    between atoms: C_20  and  C_21
REMARK    6  A    between atoms: C_21  and  C_23
REMARK    7  A    between atoms: C_23  and  C_24
REMARK    8  A    between atoms: C_23  and  C_25
REMARK                            x       y       z     vdW  Elec       q    Type
REMARK                         _______ _______ _______ _____ _____    ______ ____
ROOT
ATOM      1  C   UNL     1     -67.096 -49.313 -53.939  0.00  0.00    +0.000 A 
ATOM      2  N   UNL     1     -67.605 -50.241 -54.842  0.00  0.00    +0.000 N 
ATOM      3  C   UNL     1     -67.710 -51.607 -54.517  0.00  0.00    +0.000 A 
ATOM      4  C   UNL     1     -68.575 -52.477 -55.206  0.00  0.00    +0.000 A 
ATOM      5 BR   UNL     1     -69.779 -51.820 -56.517  0.00  0.00    +0.000 Br
ATOM      6  C   UNL     1     -68.603 -53.844 -54.915  0.00  0.00    +0.000 A 
ATOM      7  C   UNL     1     -67.769 -54.361 -53.927  0.00  0.00    +0.000 A 
ATOM      8  C   UNL     1     -66.902 -53.507 -53.221  0.00  0.00    +0.000 A 
ATOM      9 CL   UNL     1     -65.970 -54.250 -51.972  0.00  0.00    +0.000 Cl
ATOM     10  C   UNL     1     -66.870 -52.129 -53.520  0.00  0.00    +0.000 A 
ATOM     11  C   UNL     1     -65.969 -51.152 -52.856  0.00  0.00    +0.000 A 
ATOM     12  O   UNL     1     -64.926 -51.534 -52.333  0.00  0.00    +0.000 OA
ATOM     13  C   UNL     1     -66.361 -49.678 -52.861  0.00  0.00    +0.000 A 
ATOM     14  H   UNL     1     -68.340 -49.865 -55.457  0.00  0.00    +0.000 HD
ENDROOT
BRANCH   1  15
ATOM     15  S   UNL     1     -67.725 -47.626 -54.282  0.00  0.00    +0.000 S 
ATOM     16  O   UNL     1     -69.015 -47.867 -55.019  0.00  0.00    +0.000 OA
BRANCH  15  17
ATOM     17  C   UNL     1     -66.503 -46.954 -55.459  0.00  0.00    +0.000 C 
BRANCH  17  21
ATOM     18  C   UNL     1     -68.219 -46.425 -60.315  0.00  0.00    +0.000 C 
ATOM     19  C   UNL     1     -67.668 -46.766 -58.985  0.00  0.00    +0.000 A 
ATOM     20  C   UNL     1     -67.461 -46.078 -57.811  0.00  0.00    +0.000 A 
ATOM     21  C   UNL     1     -66.916 -47.039 -56.910  0.00  0.00    +0.000 A 
ATOM     22  N   UNL     1     -66.790 -48.224 -57.530  0.00  0.00    +0.000 NA
ATOM     23  O   UNL     1     -67.262 -48.050 -58.818  0.00  0.00    +0.000 OA
ENDBRANCH  17  21
ENDBRANCH  15  17
ENDBRANCH   1  15
BRANCH  13  24
ATOM     24  C   UNL     1     -65.922 -48.853 -51.672  0.00  0.00    +0.000 C 
ATOM     25  O   UNL     1     -66.696 -48.654 -50.737  0.00  0.00    +0.000 OA
BRANCH  24  26
ATOM     26  C   UNL     1     -64.537 -48.204 -51.650  0.00  0.00    +0.000 C 
ATOM     27  C   UNL     1     -63.896 -48.193 -53.036  0.00  0.00    +0.000 C 
ATOM     28  C   UNL     1     -64.578 -46.787 -51.073  0.00  0.00    +0.000 C 
ENDBRANCH  24  26
ENDBRANCH  13  24
TORSDOF 5
ENDMDL
MODEL 20
REMARK VINA RESULT:    -5.387     10.675     13.339
REMARK INTER + INTRA:          -7.831
REMARK INTER:                  -6.628
REMARK INTRA:                  -1.203
REMARK UNBOUND:                -0.870
REMARK  Name = 
REMARK  8 active torsions:
REMARK  status: ('A' for Active; 'I' for Inactive)
REMARK    1  A    between atoms: C_1  and  C_2
REMARK    2  A    between atoms: C_4  and  C_5
REMARK    3  A    between atoms: C_5  and  S_6
REMARK    4  A    between atoms: S_6  and  C_8
REMARK    5  A    between atoms: C_20  and  C_21
REMARK    6  A    between atoms: C_21  and  C_23
REMARK    7  A    between atoms: C_23  and  C_24
REMARK    8  A    between atoms: C_23  and  C_25
REMARK                            x       y       z     vdW  Elec       q    Type
REMARK                         _______ _______ _______ _____ _____    ______ ____
ROOT
ATOM      1  C   UNL     1     -65.832 -42.673 -69.977  0.00  0.00    +0.000 A 
ATOM      2  N   UNL     1     -66.606 -42.206 -68.919  0.00  0.00    +0.000 N 
ATOM      3  C   UNL     1     -66.051 -41.428 -67.884  0.00  0.00    +0.000 A 
ATOM      4  C   UNL     1     -66.841 -40.609 -67.056  0.00  0.00    +0.000 A 
ATOM      5 BR   UNL     1     -68.694 -40.380 -67.392  0.00  0.00    +0.000 Br
ATOM      6  C   UNL     1     -66.275 -39.909 -65.987  0.00  0.00    +0.000 A 
ATOM      7  C   UNL     1     -64.911 -40.012 -65.733  0.00  0.00    +0.000 A 
ATOM      8  C   UNL     1     -64.102 -40.819 -66.554  0.00  0.00    +0.000 A 
ATOM      9 CL   UNL     1     -62.415 -40.811 -66.186  0.00  0.00    +0.000 Cl
ATOM     10  C   UNL     1     -64.674 -41.531 -67.628  0.00  0.00    +0.000 A 
ATOM     11  C   UNL     1     -63.913 -42.433 -68.531  0.00  0.00    +0.000 A 
ATOM     12  O   UNL     1     -62.863 -42.941 -68.150  0.00  0.00    +0.000 OA
ATOM     13  C   UNL     1     -64.480 -42.724 -69.918  0.00  0.00    +0.000 A 
ATOM     14  H   UNL     1     -67.577 -41.984 -69.179  0.00  0.00    +0.000 HD
ENDROOT
BRANCH   1  15
ATOM     15  S   UNL     1     -66.849 -42.983 -71.469  0.00  0.00    +0.000 S 
ATOM     16  O   UNL     1     -66.677 -41.732 -72.287  0.00  0.00    +0.000 OA
BRANCH  15  17
ATOM     17  C   UNL     1     -68.553 -43.016 -70.815  0.00  0.00    +0.000 C 
BRANCH  17  21
ATOM     18  C   UNL     1     -70.728 -47.654 -70.071  0.00  0.00    +0.000 C 
ATOM     19  C   UNL     1     -69.997 -46.369 -70.112  0.00  0.00    +0.000 A 
ATOM     20  C   UNL     1     -69.908 -45.327 -71.007  0.00  0.00    +0.000 A 
ATOM     21  C   UNL     1     -69.036 -44.383 -70.391  0.00  0.00    +0.000 A 
ATOM     22  N   UNL     1     -68.618 -44.856 -69.205  0.00  0.00    +0.000 NA
ATOM     23  O   UNL     1     -69.221 -46.088 -69.034  0.00  0.00    +0.000 OA
ENDBRANCH  17  21
ENDBRANCH  15  17
ENDBRANCH   1  15
BRANCH  13  24
ATOM     24  C   UNL     1     -63.477 -42.983 -71.021  0.00  0.00    +0.000 C 
ATOM     25  O   UNL     1     -63.260 -44.132 -71.402  0.00  0.00    +0.000 OA
BRANCH  24  26
ATOM     26  C   UNL     1     -62.678 -41.828 -71.625  0.00  0.00    +0.000 C 
ATOM     27  C   UNL     1     -63.364 -40.484 -71.396  0.00  0.00    +0.000 C 
ATOM     28  C   UNL     1     -61.242 -41.788 -71.097  0.00  0.00    +0.000 C 
ENDBRANCH  24  26
ENDBRANCH  13  24
TORSDOF 5
ENDMDL
