REMARK VINA RESULT:    -5.856     12.263     13.911
REMARK INTER + INTRA:          -8.458
REMARK INTER:                  -7.468
REMARK INTRA:                  -0.990
REMARK UNBOUND:                -0.891
REMARK  Name = 
REMARK  6 active torsions:
REMARK  status: ('A' for Active; 'I' for Inactive)
REMARK    1  A    between atoms: C_1  and  C_2
REMARK    2  A    between atoms: C_4  and  C_5
REMARK    3  A    between atoms: C_5  and  S_6
REMARK    4  A    between atoms: S_6  and  C_8
REMARK    5  A    between atoms: C_20  and  C_21
REMARK    6  A    between atoms: C_21  and  C_23
REMARK                            x       y       z     vdW  Elec       q    Type
REMARK                         _______ _______ _______ _____ _____    ______ ____
ROOT
ATOM      1  C   UNL     1     -56.781 -38.613 -62.564  0.00  0.00    +0.000 A 
ATOM      2  N   UNL     1     -56.550 -39.938 -62.982  0.00  0.00    +0.000 N 
ATOM      3  C   UNL     1     -55.290 -40.319 -63.518  0.00  0.00    +0.000 A 
ATOM      4  C   UNL     1     -54.857 -41.656 -63.588  0.00  0.00    +0.000 A 
ATOM      5 BR   UNL     1     -55.866 -43.054 -62.796  0.00  0.00    +0.000 Br
ATOM      6  C   UNL     1     -53.655 -41.998 -64.224  0.00  0.00    +0.000 A 
ATOM      7  C   UNL     1     -52.855 -40.992 -64.777  0.00  0.00    +0.000 A 
ATOM      8  C   UNL     1     -53.261 -39.659 -64.718  0.00  0.00    +0.000 A 
ATOM      9 CL   UNL     1     -52.169 -38.488 -65.365  0.00  0.00    +0.000 Cl
ATOM     10  C   UNL     1     -54.484 -39.334 -64.111  0.00  0.00    +0.000 A 
ATOM     11  C   UNL     1     -55.036 -37.966 -64.077  0.00  0.00    +0.000 A 
ATOM     12  O   UNL     1     -54.807 -37.155 -64.966  0.00  0.00    +0.000 OA
ATOM     13  C   UNL     1     -55.963 -37.609 -62.952  0.00  0.00    +0.000 A 
ATOM     14  H   UNL     1     -56.947 -40.627 -62.328  0.00  0.00    +0.000 HD
ENDROOT
BRANCH   1  15
ATOM     15  S   UNL     1     -57.937 -38.512 -61.172  0.00  0.00    +0.000 S 
ATOM     16  O   UNL     1     -57.276 -39.315 -60.085  0.00  0.00    +0.000 OA
BRANCH  15  17
ATOM     17  C   UNL     1     -59.485 -39.358 -61.608  0.00  0.00    +0.000 C 
BRANCH  17  21
ATOM     18  C   UNL     1     -60.706 -44.158 -60.308  0.00  0.00    +0.000 C 
ATOM     19  C   UNL     1     -60.268 -42.861 -60.857  0.00  0.00    +0.000 A 
ATOM     20  C   UNL     1     -60.434 -41.548 -60.486  0.00  0.00    +0.000 A 
ATOM     21  C   UNL     1     -59.662 -40.815 -61.415  0.00  0.00    +0.000 A 
ATOM     22  N   UNL     1     -59.122 -41.638 -62.331  0.00  0.00    +0.000 NA
ATOM     23  O   UNL     1     -59.503 -42.915 -61.977  0.00  0.00    +0.000 OA
ENDBRANCH  17  21
ENDBRANCH  15  17
ENDBRANCH   1  15
BRANCH  13  24
ATOM     24  C   UNL     1     -55.694 -36.270 -62.355  0.00  0.00    +0.000 C 
ATOM     25  O   UNL     1     -54.934 -36.156 -61.409  0.00  0.00    +0.000 OA
BRANCH  24  26
ATOM     26  C   UNL     1     -56.325 -35.082 -62.960  0.00  0.00    +0.000 C 
ATOM     27  C   UNL     1     -56.491 -33.831 -62.136  0.00  0.00    +0.000 C 
ATOM     28  C   UNL     1     -57.699 -34.623 -62.533  0.00  0.00    +0.000 C 
ENDBRANCH  24  26
ENDBRANCH  13  24
TORSDOF 5
