REMARK VINA RESULT:    -6.160     14.454     15.477
REMARK INTER + INTRA:          -8.572
REMARK INTER:                  -7.845
REMARK INTRA:                  -0.727
REMARK UNBOUND:                -0.971
REMARK  Name = 
REMARK  6 active torsions:
REMARK  status: ('A' for Active; 'I' for Inactive)
REMARK    1  A    between atoms: C_1  and  C_2
REMARK    2  A    between atoms: C_2  and  C_4
REMARK    3  A    between atoms: C_5  and  S_6
REMARK    4  A    between atoms: S_6  and  C_8
REMARK    5  A    between atoms: C_8  and  C_9
REMARK    6  A    between atoms: C_11  and  C_12
REMARK                            x       y       z     vdW  Elec       q    Type
REMARK                         _______ _______ _______ _____ _____    ______ ____
ROOT
ATOM      1  C   UNL     1     -53.387 -41.445 -77.955  0.00  0.00    +0.000 A 
ATOM      2  C   UNL     1     -54.708 -41.239 -78.150  0.00  0.00    +0.000 A 
ATOM      3  N   UNL     1     -55.340 -41.457 -79.359  0.00  0.00    +0.000 N 
ATOM      4  C   UNL     1     -54.648 -41.809 -80.531  0.00  0.00    +0.000 A 
ATOM      5  C   UNL     1     -55.344 -42.046 -81.732  0.00  0.00    +0.000 A 
ATOM      6 BR   UNL     1     -57.229 -41.839 -81.829  0.00  0.00    +0.000 Br
ATOM      7  C   UNL     1     -54.670 -42.444 -82.884  0.00  0.00    +0.000 A 
ATOM      8  C   UNL     1     -53.289 -42.613 -82.847  0.00  0.00    +0.000 A 
ATOM      9  C   UNL     1     -52.578 -42.410 -81.658  0.00  0.00    +0.000 A 
ATOM     10 CL   UNL     1     -50.871 -42.657 -81.771  0.00  0.00    +0.000 Cl
ATOM     11  C   UNL     1     -53.262 -42.032 -80.484  0.00  0.00    +0.000 A 
ATOM     12  C   UNL     1     -52.586 -41.822 -79.173  0.00  0.00    +0.000 A 
ATOM     13  O   UNL     1     -51.368 -41.918 -79.089  0.00  0.00    +0.000 OA
ATOM     14  H   UNL     1     -56.217 -40.955 -79.497  0.00  0.00    +0.000 HD
ENDROOT
BRANCH   1  16
ATOM     15  C   UNL     1     -52.628 -42.466 -75.690  0.00  0.00    +0.000 C 
ATOM     16  C   UNL     1     -52.682 -41.284 -76.633  0.00  0.00    +0.000 C 
ATOM     17  O   UNL     1     -52.180 -40.215 -76.291  0.00  0.00    +0.000 OA
ENDBRANCH   1  16
BRANCH   2  18
ATOM     18  S   UNL     1     -55.753 -40.490 -76.855  0.00  0.00    +0.000 S 
ATOM     19  O   UNL     1     -56.964 -40.019 -77.615  0.00  0.00    +0.000 OA
BRANCH  18  20
ATOM     20  C   UNL     1     -56.269 -42.007 -75.975  0.00  0.00    +0.000 C 
BRANCH  20  21
ATOM     21  C   UNL     1     -56.605 -41.729 -74.547  0.00  0.00    +0.000 A 
ATOM     22  C   UNL     1     -56.084 -42.331 -73.371  0.00  0.00    +0.000 A 
ATOM     23  C   UNL     1     -56.688 -41.655 -72.340  0.00  0.00    +0.000 A 
ATOM     24  C   UNL     1     -56.624 -41.741 -70.869  0.00  0.00    +0.000 C 
ATOM     25  O   UNL     1     -57.511 -40.704 -72.855  0.00  0.00    +0.000 OA
ATOM     26  N   UNL     1     -57.458 -40.743 -74.238  0.00  0.00    +0.000 NA
ENDBRANCH  20  21
ENDBRANCH  18  20
ENDBRANCH   2  18
TORSDOF 4
