REMARK VINA RESULT:    -5.688      9.739     13.566
REMARK INTER + INTRA:          -8.110
REMARK INTER:                  -7.239
REMARK INTRA:                  -0.871
REMARK UNBOUND:                -0.760
REMARK  Name = 
REMARK  8 active torsions:
REMARK  status: ('A' for Active; 'I' for Inactive)
REMARK    1  A    between atoms: C_1  and  C_2
REMARK    2  A    between atoms: C_4  and  C_5
REMARK    3  A    between atoms: C_5  and  S_6
REMARK    4  A    between atoms: S_6  and  C_8
REMARK    5  A    between atoms: C_20  and  C_21
REMARK    6  A    between atoms: C_21  and  C_23
REMARK    7  A    between atoms: C_23  and  C_24
REMARK    8  A    between atoms: C_23  and  C_25
REMARK                            x       y       z     vdW  Elec       q    Type
REMARK                         _______ _______ _______ _____ _____    ______ ____
ROOT
ATOM      1  C   UNL     1     -64.490 -45.601 -57.719  0.00  0.00    +0.000 A 
ATOM      2  N   UNL     1     -65.574 -44.729 -57.677  0.00  0.00    +0.000 N 
ATOM      3  C   UNL     1     -65.798 -43.779 -58.692  0.00  0.00    +0.000 A 
ATOM      4  C   UNL     1     -67.059 -43.191 -58.903  0.00  0.00    +0.000 A 
ATOM      5 BR   UNL     1     -68.580 -43.769 -57.928  0.00  0.00    +0.000 Br
ATOM      6  C   UNL     1     -67.235 -42.193 -59.866  0.00  0.00    +0.000 A 
ATOM      7  C   UNL     1     -66.155 -41.773 -60.636  0.00  0.00    +0.000 A 
ATOM      8  C   UNL     1     -64.888 -42.354 -60.447  0.00  0.00    +0.000 A 
ATOM      9 CL   UNL     1     -63.643 -41.803 -61.509  0.00  0.00    +0.000 Cl
ATOM     10  C   UNL     1     -64.708 -43.355 -59.470  0.00  0.00    +0.000 A 
ATOM     11  C   UNL     1     -63.407 -44.006 -59.171  0.00  0.00    +0.000 A 
ATOM     12  O   UNL     1     -62.356 -43.430 -59.438  0.00  0.00    +0.000 OA
ATOM     13  C   UNL     1     -63.414 -45.382 -58.511  0.00  0.00    +0.000 A 
ATOM     14  H   UNL     1     -66.415 -45.131 -57.240  0.00  0.00    +0.000 HD
ENDROOT
BRANCH   1  15
ATOM     15  S   UNL     1     -64.819 -47.129 -56.762  0.00  0.00    +0.000 S 
ATOM     16  O   UNL     1     -66.321 -47.205 -56.712  0.00  0.00    +0.000 OA
BRANCH  15  17
ATOM     17  C   UNL     1     -64.206 -46.718 -55.093  0.00  0.00    +0.000 C 
BRANCH  17  21
ATOM     18  C   UNL     1     -64.699 -51.095 -52.373  0.00  0.00    +0.000 C 
ATOM     19  C   UNL     1     -64.510 -49.754 -52.970  0.00  0.00    +0.000 A 
ATOM     20  C   UNL     1     -64.488 -49.253 -54.251  0.00  0.00    +0.000 A 
ATOM     21  C   UNL     1     -64.288 -47.850 -54.097  0.00  0.00    +0.000 A 
ATOM     22  N   UNL     1     -64.177 -47.548 -52.792  0.00  0.00    +0.000 NA
ATOM     23  O   UNL     1     -64.319 -48.733 -52.096  0.00  0.00    +0.000 OA
ENDBRANCH  17  21
ENDBRANCH  15  17
ENDBRANCH   1  15
BRANCH  13  24
ATOM     24  C   UNL     1     -62.267 -46.306 -58.855  0.00  0.00    +0.000 C 
ATOM     25  O   UNL     1     -61.312 -46.420 -58.088  0.00  0.00    +0.000 OA
BRANCH  24  26
ATOM     26  C   UNL     1     -62.252 -47.056 -60.187  0.00  0.00    +0.000 C 
ATOM     27  C   UNL     1     -63.664 -47.355 -60.685  0.00  0.00    +0.000 C 
ATOM     28  C   UNL     1     -61.460 -46.303 -61.259  0.00  0.00    +0.000 C 
ENDBRANCH  24  26
ENDBRANCH  13  24
TORSDOF 5
