REMARK VINA RESULT:    -5.953     14.366     15.164
REMARK INTER + INTRA:          -8.105
REMARK INTER:                  -7.290
REMARK INTRA:                  -0.815
REMARK UNBOUND:                -0.760
REMARK  Name = 
REMARK  6 active torsions:
REMARK  status: ('A' for Active; 'I' for Inactive)
REMARK    1  A    between atoms: C_1  and  C_2
REMARK    2  A    between atoms: C_2  and  C_4
REMARK    3  A    between atoms: C_5  and  S_6
REMARK    4  A    between atoms: S_6  and  C_8
REMARK    5  A    between atoms: C_8  and  C_9
REMARK    6  A    between atoms: C_11  and  C_12
REMARK                            x       y       z     vdW  Elec       q    Type
REMARK                         _______ _______ _______ _____ _____    ______ ____
ROOT
ATOM      1  C   UNL     1     -57.112 -43.448 -78.047  0.00  0.00    +0.000 A 
ATOM      2  C   UNL     1     -56.178 -42.688 -77.425  0.00  0.00    +0.000 A 
ATOM      3  N   UNL     1     -55.167 -43.218 -76.650  0.00  0.00    +0.000 N 
ATOM      4  C   UNL     1     -55.059 -44.587 -76.361  0.00  0.00    +0.000 A 
ATOM      5  C   UNL     1     -53.970 -45.083 -75.620  0.00  0.00    +0.000 A 
ATOM      6 BR   UNL     1     -52.631 -43.915 -74.948  0.00  0.00    +0.000 Br
ATOM      7  C   UNL     1     -53.831 -46.447 -75.373  0.00  0.00    +0.000 A 
ATOM      8  C   UNL     1     -54.787 -47.335 -75.860  0.00  0.00    +0.000 A 
ATOM      9  C   UNL     1     -55.867 -46.867 -76.620  0.00  0.00    +0.000 A 
ATOM     10 CL   UNL     1     -56.973 -48.087 -77.148  0.00  0.00    +0.000 Cl
ATOM     11  C   UNL     1     -55.989 -45.493 -76.901  0.00  0.00    +0.000 A 
ATOM     12  C   UNL     1     -57.074 -44.924 -77.743  0.00  0.00    +0.000 A 
ATOM     13  O   UNL     1     -57.968 -45.645 -78.167  0.00  0.00    +0.000 OA
ATOM     14  H   UNL     1     -54.740 -42.583 -75.975  0.00  0.00    +0.000 HD
ENDROOT
BRANCH   1  16
ATOM     15  C   UNL     1     -59.513 -42.530 -78.378  0.00  0.00    +0.000 C 
ATOM     16  C   UNL     1     -58.176 -42.921 -78.968  0.00  0.00    +0.000 C 
ATOM     17  O   UNL     1     -58.000 -42.833 -80.186  0.00  0.00    +0.000 OA
ENDBRANCH   1  16
BRANCH   2  18
ATOM     18  S   UNL     1     -56.270 -40.867 -77.458  0.00  0.00    +0.000 S 
ATOM     19  O   UNL     1     -56.853 -40.522 -76.114  0.00  0.00    +0.000 OA
BRANCH  18  20
ATOM     20  C   UNL     1     -54.485 -40.485 -77.346  0.00  0.00    +0.000 C 
BRANCH  20  21
ATOM     21  C   UNL     1     -53.751 -40.894 -78.577  0.00  0.00    +0.000 A 
ATOM     22  C   UNL     1     -52.620 -41.740 -78.702  0.00  0.00    +0.000 A 
ATOM     23  C   UNL     1     -52.418 -41.851 -80.056  0.00  0.00    +0.000 A 
ATOM     24  C   UNL     1     -51.450 -42.573 -80.901  0.00  0.00    +0.000 C 
ATOM     25  O   UNL     1     -53.361 -41.116 -80.706  0.00  0.00    +0.000 OA
ATOM     26  N   UNL     1     -54.202 -40.520 -79.783  0.00  0.00    +0.000 NA
ENDBRANCH  20  21
ENDBRANCH  18  20
ENDBRANCH   2  18
TORSDOF 4
