REMARK VINA RESULT:    -6.856      0.000      0.000
REMARK INTER + INTRA:          -9.262
REMARK INTER:                  -8.459
REMARK INTRA:                  -0.804
REMARK UNBOUND:                -0.804
REMARK  Name = 
REMARK  6 active torsions:
REMARK  status: ('A' for Active; 'I' for Inactive)
REMARK    1  A    between atoms: C_1  and  C_2
REMARK    2  A    between atoms: C_2  and  C_4
REMARK    3  A    between atoms: C_5  and  S_6
REMARK    4  A    between atoms: S_6  and  C_8
REMARK    5  A    between atoms: C_8  and  C_9
REMARK    6  A    between atoms: C_11  and  C_12
REMARK                            x       y       z     vdW  Elec       q    Type
REMARK                         _______ _______ _______ _____ _____    ______ ____
ROOT
ATOM      1  C   UNL     1     -57.163 -40.491 -61.906  0.00  0.00    +0.000 A 
ATOM      2  C   UNL     1     -56.269 -41.382 -62.386  0.00  0.00    +0.000 A 
ATOM      3  N   UNL     1     -55.187 -41.020 -63.163  0.00  0.00    +0.000 N 
ATOM      4  C   UNL     1     -54.949 -39.702 -63.583  0.00  0.00    +0.000 A 
ATOM      5  C   UNL     1     -53.787 -39.373 -64.303  0.00  0.00    +0.000 A 
ATOM      6 BR   UNL     1     -52.530 -40.712 -64.795  0.00  0.00    +0.000 Br
ATOM      7  C   UNL     1     -53.514 -38.057 -64.664  0.00  0.00    +0.000 A 
ATOM      8  C   UNL     1     -54.404 -37.047 -64.310  0.00  0.00    +0.000 A 
ATOM      9  C   UNL     1     -55.557 -37.344 -63.575  0.00  0.00    +0.000 A 
ATOM     10 CL   UNL     1     -56.565 -35.989 -63.203  0.00  0.00    +0.000 Cl
ATOM     11  C   UNL     1     -55.820 -38.672 -63.185  0.00  0.00    +0.000 A 
ATOM     12  C   UNL     1     -57.004 -39.069 -62.375  0.00  0.00    +0.000 A 
ATOM     13  O   UNL     1     -57.876 -38.248 -62.116  0.00  0.00    +0.000 OA
ATOM     14  H   UNL     1     -54.782 -41.754 -63.742  0.00  0.00    +0.000 HD
ENDROOT
BRANCH   1  16
ATOM     15  C   UNL     1     -59.644 -41.159 -61.572  0.00  0.00    +0.000 C 
ATOM     16  C   UNL     1     -58.296 -40.822 -60.978  0.00  0.00    +0.000 C 
ATOM     17  O   UNL     1     -58.161 -40.790 -59.752  0.00  0.00    +0.000 OA
ENDBRANCH   1  16
BRANCH   2  18
ATOM     18  S   UNL     1     -56.500 -43.180 -62.148  0.00  0.00    +0.000 S 
ATOM     19  O   UNL     1     -56.168 -43.758 -63.497  0.00  0.00    +0.000 OA
BRANCH  18  20
ATOM     20  C   UNL     1     -55.051 -43.520 -61.086  0.00  0.00    +0.000 C 
BRANCH  20  21
ATOM     21  C   UNL     1     -53.976 -44.246 -61.823  0.00  0.00    +0.000 A 
ATOM     22  C   UNL     1     -53.640 -45.624 -61.785  0.00  0.00    +0.000 A 
ATOM     23  C   UNL     1     -52.645 -45.764 -62.720  0.00  0.00    +0.000 A 
ATOM     24  C   UNL     1     -51.847 -46.900 -63.218  0.00  0.00    +0.000 C 
ATOM     25  O   UNL     1     -52.393 -44.553 -63.285  0.00  0.00    +0.000 OA
ATOM     26  N   UNL     1     -53.229 -43.600 -62.731  0.00  0.00    +0.000 NA
ENDBRANCH  20  21
ENDBRANCH  18  20
ENDBRANCH   2  18
TORSDOF 4
