REMARK VINA RESULT:    -5.752     13.290     14.324
REMARK INTER + INTRA:          -8.133
REMARK INTER:                  -7.424
REMARK INTRA:                  -0.709
REMARK UNBOUND:                -1.035
REMARK  Name = 
REMARK  6 active torsions:
REMARK  status: ('A' for Active; 'I' for Inactive)
REMARK    1  A    between atoms: C_1  and  C_2
REMARK    2  A    between atoms: C_2  and  C_4
REMARK    3  A    between atoms: C_5  and  S_6
REMARK    4  A    between atoms: S_6  and  C_8
REMARK    5  A    between atoms: C_8  and  C_9
REMARK    6  A    between atoms: C_11  and  C_12
REMARK                            x       y       z     vdW  Elec       q    Type
REMARK                         _______ _______ _______ _____ _____    ______ ____
ROOT
ATOM      1  C   UNL     1     -56.326 -43.198 -77.595  0.00  0.00    +0.000 A 
ATOM      2  C   UNL     1     -55.603 -42.843 -76.507  0.00  0.00    +0.000 A 
ATOM      3  N   UNL     1     -54.291 -42.436 -76.631  0.00  0.00    +0.000 N 
ATOM      4  C   UNL     1     -53.622 -42.312 -77.852  0.00  0.00    +0.000 A 
ATOM      5  C   UNL     1     -52.279 -41.900 -77.911  0.00  0.00    +0.000 A 
ATOM      6 BR   UNL     1     -51.346 -41.388 -76.337  0.00  0.00    +0.000 Br
ATOM      7  C   UNL     1     -51.590 -41.845 -79.122  0.00  0.00    +0.000 A 
ATOM      8  C   UNL     1     -52.233 -42.220 -80.299  0.00  0.00    +0.000 A 
ATOM      9  C   UNL     1     -53.563 -42.640 -80.272  0.00  0.00    +0.000 A 
ATOM     10 CL   UNL     1     -54.226 -43.100 -81.805  0.00  0.00    +0.000 Cl
ATOM     11  C   UNL     1     -54.251 -42.681 -79.043  0.00  0.00    +0.000 A 
ATOM     12  C   UNL     1     -55.670 -43.066 -78.943  0.00  0.00    +0.000 A 
ATOM     13  O   UNL     1     -56.294 -43.230 -79.983  0.00  0.00    +0.000 OA
ATOM     14  H   UNL     1     -53.886 -41.985 -75.821  0.00  0.00    +0.000 HD
ENDROOT
BRANCH   1  16
ATOM     15  C   UNL     1     -58.029 -45.119 -77.568  0.00  0.00    +0.000 C 
ATOM     16  C   UNL     1     -57.761 -43.618 -77.598  0.00  0.00    +0.000 C 
ATOM     17  O   UNL     1     -58.654 -42.814 -77.633  0.00  0.00    +0.000 OA
ENDBRANCH   1  16
BRANCH   2  18
ATOM     18  S   UNL     1     -56.241 -42.951 -74.783  0.00  0.00    +0.000 S 
ATOM     19  O   UNL     1     -55.022 -42.698 -73.937  0.00  0.00    +0.000 OA
BRANCH  18  20
ATOM     20  C   UNL     1     -57.297 -41.436 -74.613  0.00  0.00    +0.000 C 
BRANCH  20  21
ATOM     21  C   UNL     1     -58.519 -41.685 -73.798  0.00  0.00    +0.000 A 
ATOM     22  C   UNL     1     -58.843 -41.206 -72.506  0.00  0.00    +0.000 A 
ATOM     23  C   UNL     1     -60.048 -41.797 -72.218  0.00  0.00    +0.000 A 
ATOM     24  C   UNL     1     -60.943 -41.782 -71.052  0.00  0.00    +0.000 C 
ATOM     25  O   UNL     1     -60.443 -42.555 -73.274  0.00  0.00    +0.000 OA
ATOM     26  N   UNL     1     -59.499 -42.469 -74.279  0.00  0.00    +0.000 NA
ENDBRANCH  20  21
ENDBRANCH  18  20
ENDBRANCH   2  18
TORSDOF 4
