REMARK VINA RESULT:    -6.063     13.589     14.630
REMARK INTER + INTRA:          -8.410
REMARK INTER:                  -7.388
REMARK INTRA:                  -1.022
REMARK UNBOUND:                -0.930
REMARK  Name = 
REMARK  6 active torsions:
REMARK  status: ('A' for Active; 'I' for Inactive)
REMARK    1  A    between atoms: C_1  and  C_2
REMARK    2  A    between atoms: C_2  and  C_4
REMARK    3  A    between atoms: C_5  and  S_6
REMARK    4  A    between atoms: S_6  and  C_8
REMARK    5  A    between atoms: C_8  and  C_9
REMARK    6  A    between atoms: C_11  and  C_12
REMARK                            x       y       z     vdW  Elec       q    Type
REMARK                         _______ _______ _______ _____ _____    ______ ____
ROOT
ATOM      1  C   UNL     1     -55.848 -42.212 -75.047  0.00  0.00    +0.000 A 
ATOM      2  C   UNL     1     -56.305 -41.526 -76.120  0.00  0.00    +0.000 A 
ATOM      3  N   UNL     1     -55.519 -41.206 -77.214  0.00  0.00    +0.000 N 
ATOM      4  C   UNL     1     -54.115 -41.296 -77.154  0.00  0.00    +0.000 A 
ATOM      5  C   UNL     1     -53.308 -40.727 -78.152  0.00  0.00    +0.000 A 
ATOM      6 BR   UNL     1     -54.076 -39.766 -79.599  0.00  0.00    +0.000 Br
ATOM      7  C   UNL     1     -51.920 -40.840 -78.097  0.00  0.00    +0.000 A 
ATOM      8  C   UNL     1     -51.326 -41.530 -77.040  0.00  0.00    +0.000 A 
ATOM      9  C   UNL     1     -52.116 -42.136 -76.050  0.00  0.00    +0.000 A 
ATOM     10 CL   UNL     1     -51.267 -42.900 -74.759  0.00  0.00    +0.000 Cl
ATOM     11  C   UNL     1     -53.514 -42.043 -76.127  0.00  0.00    +0.000 A 
ATOM     12  C   UNL     1     -54.439 -42.716 -75.174  0.00  0.00    +0.000 A 
ATOM     13  O   UNL     1     -54.077 -43.693 -74.528  0.00  0.00    +0.000 OA
ATOM     14  H   UNL     1     -55.858 -40.398 -77.744  0.00  0.00    +0.000 HD
ENDROOT
BRANCH   1  16
ATOM     15  C   UNL     1     -56.431 -41.626 -72.579  0.00  0.00    +0.000 C 
ATOM     16  C   UNL     1     -56.627 -42.502 -73.802  0.00  0.00    +0.000 C 
ATOM     17  O   UNL     1     -57.431 -43.434 -73.759  0.00  0.00    +0.000 OA
ENDBRANCH   1  16
BRANCH   2  18
ATOM     18  S   UNL     1     -57.985 -40.815 -76.160  0.00  0.00    +0.000 S 
ATOM     19  O   UNL     1     -57.843 -39.654 -77.108  0.00  0.00    +0.000 OA
BRANCH  18  20
ATOM     20  C   UNL     1     -58.792 -42.158 -77.110  0.00  0.00    +0.000 C 
BRANCH  20  21
ATOM     21  C   UNL     1     -58.903 -41.896 -78.577  0.00  0.00    +0.000 A 
ATOM     22  C   UNL     1     -59.954 -41.331 -79.345  0.00  0.00    +0.000 A 
ATOM     23  C   UNL     1     -59.454 -41.256 -80.622  0.00  0.00    +0.000 A 
ATOM     24  C   UNL     1     -59.972 -40.782 -81.919  0.00  0.00    +0.000 C 
ATOM     25  O   UNL     1     -58.181 -41.730 -80.626  0.00  0.00    +0.000 OA
ATOM     26  N   UNL     1     -57.829 -42.125 -79.352  0.00  0.00    +0.000 NA
ENDBRANCH  20  21
ENDBRANCH  18  20
ENDBRANCH   2  18
TORSDOF 4
