REMARK VINA RESULT:    -4.867     16.792     19.979
REMARK INTER + INTRA:          -7.008
REMARK INTER:                  -6.110
REMARK INTRA:                  -0.898
REMARK UNBOUND:                -1.003
REMARK  Name = 
REMARK  6 active torsions:
REMARK  status: ('A' for Active; 'I' for Inactive)
REMARK    1  A    between atoms: C_1  and  C_2
REMARK    2  A    between atoms: C_2  and  C_4
REMARK    3  A    between atoms: C_5  and  S_6
REMARK    4  A    between atoms: S_6  and  C_8
REMARK    5  A    between atoms: C_8  and  C_9
REMARK    6  A    between atoms: C_11  and  C_12
REMARK                            x       y       z     vdW  Elec       q    Type
REMARK                         _______ _______ _______ _____ _____    ______ ____
ROOT
ATOM      1  C   UNL     1     -67.599 -49.443 -55.620  0.00  0.00    +0.000 A 
ATOM      2  C   UNL     1     -68.382 -50.543 -55.545  0.00  0.00    +0.000 A 
ATOM      3  N   UNL     1     -68.160 -51.569 -54.647  0.00  0.00    +0.000 N 
ATOM      4  C   UNL     1     -67.005 -51.645 -53.847  0.00  0.00    +0.000 A 
ATOM      5  C   UNL     1     -66.778 -52.747 -53.003  0.00  0.00    +0.000 A 
ATOM      6 BR   UNL     1     -67.983 -54.217 -52.975  0.00  0.00    +0.000 Br
ATOM      7  C   UNL     1     -65.663 -52.799 -52.168  0.00  0.00    +0.000 A 
ATOM      8  C   UNL     1     -64.762 -51.742 -52.162  0.00  0.00    +0.000 A 
ATOM      9  C   UNL     1     -64.975 -50.619 -52.976  0.00  0.00    +0.000 A 
ATOM     10 CL   UNL     1     -63.759 -49.394 -52.862  0.00  0.00    +0.000 Cl
ATOM     11  C   UNL     1     -66.108 -50.564 -53.813  0.00  0.00    +0.000 A 
ATOM     12  C   UNL     1     -66.397 -49.416 -54.709  0.00  0.00    +0.000 A 
ATOM     13  O   UNL     1     -65.639 -48.461 -54.740  0.00  0.00    +0.000 OA
ATOM     14  H   UNL     1     -68.569 -52.470 -54.900  0.00  0.00    +0.000 HD
ENDROOT
BRANCH   1  16
ATOM     15  C   UNL     1     -67.153 -48.302 -57.926  0.00  0.00    +0.000 C 
ATOM     16  C   UNL     1     -67.825 -48.288 -56.573  0.00  0.00    +0.000 C 
ATOM     17  O   UNL     1     -68.540 -47.332 -56.270  0.00  0.00    +0.000 OA
ENDBRANCH   1  16
BRANCH   2  18
ATOM     18  S   UNL     1     -69.708 -50.852 -56.759  0.00  0.00    +0.000 S 
ATOM     19  O   UNL     1     -69.928 -52.338 -56.667  0.00  0.00    +0.000 OA
BRANCH  18  20
ATOM     20  C   UNL     1     -71.114 -50.079 -55.881  0.00  0.00    +0.000 C 
BRANCH  20  21
ATOM     21  C   UNL     1     -71.811 -51.030 -54.960  0.00  0.00    +0.000 A 
ATOM     22  C   UNL     1     -71.512 -51.397 -53.622  0.00  0.00    +0.000 A 
ATOM     23  C   UNL     1     -72.496 -52.293 -53.276  0.00  0.00    +0.000 A 
ATOM     24  C   UNL     1     -72.785 -53.103 -52.079  0.00  0.00    +0.000 C 
ATOM     25  O   UNL     1     -73.356 -52.426 -54.320  0.00  0.00    +0.000 OA
ATOM     26  N   UNL     1     -72.936 -51.633 -55.373  0.00  0.00    +0.000 NA
ENDBRANCH  20  21
ENDBRANCH  18  20
ENDBRANCH   2  18
TORSDOF 4
