REMARK VINA RESULT:    -6.675     12.340     13.918
REMARK INTER + INTRA:          -9.973
REMARK INTER:                  -8.958
REMARK INTRA:                  -1.015
REMARK UNBOUND:                -1.347
REMARK  Name = 
REMARK  6 active torsions:
REMARK  status: ('A' for Active; 'I' for Inactive)
REMARK    1  A    between atoms: C_1  and  C_2
REMARK    2  A    between atoms: C_2  and  C_4
REMARK    3  A    between atoms: C_5  and  S_6
REMARK    4  A    between atoms: S_6  and  C_8
REMARK    5  A    between atoms: C_8  and  C_9
REMARK    6  A    between atoms: C_13  and  C_14
REMARK                            x       y       z     vdW  Elec       q    Type
REMARK                         _______ _______ _______ _____ _____    ______ ____
ROOT
ATOM      1  C   UNL     1     -57.323 -43.989 -78.363  0.00  0.00    +0.000 A 
ATOM      2  C   UNL     1     -56.374 -43.190 -77.822  0.00  0.00    +0.000 A 
ATOM      3  N   UNL     1     -55.352 -43.670 -77.022  0.00  0.00    +0.000 N 
ATOM      4  C   UNL     1     -55.284 -45.006 -76.587  0.00  0.00    +0.000 A 
ATOM      5  C   UNL     1     -54.229 -45.453 -75.772  0.00  0.00    +0.000 A 
ATOM      6 BR   UNL     1     -52.896 -44.249 -75.152  0.00  0.00    +0.000 Br
ATOM      7  C   UNL     1     -54.125 -46.792 -75.394  0.00  0.00    +0.000 A 
ATOM      8  C   UNL     1     -55.078 -47.707 -75.830  0.00  0.00    +0.000 A 
ATOM      9  C   UNL     1     -56.128 -47.294 -76.655  0.00  0.00    +0.000 A 
ATOM     10 CL   UNL     1     -57.240 -48.543 -77.104  0.00  0.00    +0.000 Cl
ATOM     11  C   UNL     1     -56.221 -45.945 -77.058  0.00  0.00    +0.000 A 
ATOM     12  C   UNL     1     -57.283 -45.439 -77.965  0.00  0.00    +0.000 A 
ATOM     13  O   UNL     1     -58.151 -46.204 -78.367  0.00  0.00    +0.000 OA
ATOM     14  H   UNL     1     -54.898 -42.982 -76.419  0.00  0.00    +0.000 HD
ENDROOT
BRANCH   1  16
ATOM     15  C   UNL     1     -58.096 -43.448 -80.787  0.00  0.00    +0.000 C 
ATOM     16  C   UNL     1     -58.407 -43.525 -79.306  0.00  0.00    +0.000 C 
ATOM     17  O   UNL     1     -59.515 -43.175 -78.907  0.00  0.00    +0.000 OA
ENDBRANCH   1  16
BRANCH   2  18
ATOM     18  S   UNL     1     -56.482 -41.371 -77.969  0.00  0.00    +0.000 S 
ATOM     19  O   UNL     1     -56.188 -40.891 -76.574  0.00  0.00    +0.000 OA
BRANCH  18  20
ATOM     20  C   UNL     1     -54.976 -41.023 -78.953  0.00  0.00    +0.000 C 
BRANCH  20  21
ATOM     21  C   UNL     1     -53.915 -40.265 -78.166  0.00  0.00    +0.000 A 
ATOM     22  C   UNL     1     -53.844 -38.865 -78.230  0.00  0.00    +0.000 A 
ATOM     23  C   UNL     1     -52.863 -38.166 -77.518  0.00  0.00    +0.000 A 
ATOM     24  C   UNL     1     -51.932 -38.851 -76.739  0.00  0.00    +0.000 A 
ATOM     25  C   UNL     1     -51.969 -40.242 -76.675  0.00  0.00    +0.000 A 
ATOM     26  C   UNL     1     -52.954 -40.947 -77.392  0.00  0.00    +0.000 A 
BRANCH  25  27
ATOM     27  C   UNL     1     -50.999 -40.955 -75.888  0.00  0.00    +0.000 C 
ATOM     28  N   UNL     1     -50.214 -41.517 -75.236  0.00  0.00    +0.000 NA
ENDBRANCH  25  27
ENDBRANCH  20  21
ENDBRANCH  18  20
ENDBRANCH   2  18
TORSDOF 5
