REMARK VINA RESULT:    -5.065      5.572      6.995
REMARK INTER + INTRA:          -7.455
REMARK INTER:                  -6.471
REMARK INTRA:                  -0.984
REMARK UNBOUND:                -0.910
REMARK  Name = 
REMARK  6 active torsions:
REMARK  status: ('A' for Active; 'I' for Inactive)
REMARK    1  A    between atoms: C_1  and  C_2
REMARK    2  A    between atoms: C_4  and  C_5
REMARK    3  A    between atoms: C_5  and  S_6
REMARK    4  A    between atoms: S_6  and  C_8
REMARK    5  A    between atoms: C_20  and  C_21
REMARK    6  A    between atoms: C_21  and  C_23
REMARK                            x       y       z     vdW  Elec       q    Type
REMARK                         _______ _______ _______ _____ _____    ______ ____
ROOT
ATOM      1  C   UNL     1     -57.511 -41.573 -81.385  0.00  0.00    +0.000 A 
ATOM      2  N   UNL     1     -56.823 -40.962 -82.452  0.00  0.00    +0.000 N 
ATOM      3  C   UNL     1     -55.432 -41.192 -82.642  0.00  0.00    +0.000 A 
ATOM      4  C   UNL     1     -54.775 -40.950 -83.863  0.00  0.00    +0.000 A 
ATOM      5 BR   UNL     1     -55.745 -40.462 -85.418  0.00  0.00    +0.000 Br
ATOM      6  C   UNL     1     -53.384 -41.085 -83.976  0.00  0.00    +0.000 A 
ATOM      7  C   UNL     1     -52.635 -41.493 -82.866  0.00  0.00    +0.000 A 
ATOM      8  C   UNL     1     -53.265 -41.740 -81.646  0.00  0.00    +0.000 A 
ATOM      9 CL   UNL     1     -52.263 -42.308 -80.359  0.00  0.00    +0.000 Cl
ATOM     10  C   UNL     1     -54.653 -41.567 -81.536  0.00  0.00    +0.000 A 
ATOM     11  C   UNL     1     -55.394 -41.721 -80.269  0.00  0.00    +0.000 A 
ATOM     12  O   UNL     1     -54.876 -41.478 -79.186  0.00  0.00    +0.000 OA
ATOM     13  C   UNL     1     -56.840 -42.111 -80.343  0.00  0.00    +0.000 A 
ATOM     14  H   UNL     1     -57.368 -40.974 -83.324  0.00  0.00    +0.000 HD
ENDROOT
BRANCH   1  15
ATOM     15  S   UNL     1     -59.239 -41.938 -81.790  0.00  0.00    +0.000 S 
ATOM     16  O   UNL     1     -59.153 -42.920 -82.927  0.00  0.00    +0.000 OA
BRANCH  15  17
ATOM     17  C   UNL     1     -60.042 -40.438 -82.426  0.00  0.00    +0.000 C 
BRANCH  17  21
ATOM     18  C   UNL     1     -61.861 -37.510 -78.639  0.00  0.00    +0.000 C 
ATOM     19  C   UNL     1     -61.348 -38.178 -79.850  0.00  0.00    +0.000 A 
ATOM     20  C   UNL     1     -60.854 -39.430 -80.128  0.00  0.00    +0.000 A 
ATOM     21  C   UNL     1     -60.634 -39.424 -81.524  0.00  0.00    +0.000 A 
ATOM     22  N   UNL     1     -60.914 -38.214 -82.039  0.00  0.00    +0.000 NA
ATOM     23  O   UNL     1     -61.361 -37.440 -80.989  0.00  0.00    +0.000 OA
ENDBRANCH  17  21
ENDBRANCH  15  17
ENDBRANCH   1  15
BRANCH  13  24
ATOM     24  C   UNL     1     -57.230 -43.156 -79.353  0.00  0.00    +0.000 C 
ATOM     25  O   UNL     1     -57.821 -42.852 -78.332  0.00  0.00    +0.000 OA
BRANCH  24  26
ATOM     26  C   UNL     1     -56.929 -44.569 -79.655  0.00  0.00    +0.000 C 
ATOM     27  C   UNL     1     -56.784 -45.005 -81.090  0.00  0.00    +0.000 C 
ATOM     28  C   UNL     1     -57.962 -45.470 -80.289  0.00  0.00    +0.000 C 
ENDBRANCH  24  26
ENDBRANCH  13  24
TORSDOF 5
