REMARK VINA RESULT:    -5.031     18.375     19.800
REMARK INTER + INTRA:          -7.138
REMARK INTER:                  -6.387
REMARK INTRA:                  -0.751
REMARK UNBOUND:                -0.930
REMARK  Name = 
REMARK  6 active torsions:
REMARK  status: ('A' for Active; 'I' for Inactive)
REMARK    1  A    between atoms: C_1  and  C_2
REMARK    2  A    between atoms: C_2  and  C_4
REMARK    3  A    between atoms: C_5  and  S_6
REMARK    4  A    between atoms: S_6  and  C_8
REMARK    5  A    between atoms: C_8  and  C_9
REMARK    6  A    between atoms: C_11  and  C_12
REMARK                            x       y       z     vdW  Elec       q    Type
REMARK                         _______ _______ _______ _____ _____    ______ ____
ROOT
ATOM      1  C   UNL     1     -46.136 -23.044 -62.131  0.00  0.00    +0.000 A 
ATOM      2  C   UNL     1     -46.162 -22.745 -63.450  0.00  0.00    +0.000 A 
ATOM      3  N   UNL     1     -47.327 -22.472 -64.148  0.00  0.00    +0.000 N 
ATOM      4  C   UNL     1     -48.590 -22.790 -63.612  0.00  0.00    +0.000 A 
ATOM      5  C   UNL     1     -49.744 -22.764 -64.411  0.00  0.00    +0.000 A 
ATOM      6 BR   UNL     1     -49.643 -22.349 -66.261  0.00  0.00    +0.000 Br
ATOM      7  C   UNL     1     -50.993 -23.059 -63.868  0.00  0.00    +0.000 A 
ATOM      8  C   UNL     1     -51.098 -23.379 -62.514  0.00  0.00    +0.000 A 
ATOM      9  C   UNL     1     -49.961 -23.377 -61.691  0.00  0.00    +0.000 A 
ATOM     10 CL   UNL     1     -50.206 -23.855 -60.053  0.00  0.00    +0.000 Cl
ATOM     11  C   UNL     1     -48.711 -23.051 -62.237  0.00  0.00    +0.000 A 
ATOM     12  C   UNL     1     -47.462 -22.943 -61.434  0.00  0.00    +0.000 A 
ATOM     13  O   UNL     1     -47.505 -22.734 -60.227  0.00  0.00    +0.000 OA
ATOM     14  H   UNL     1     -47.253 -22.637 -65.156  0.00  0.00    +0.000 HD
ENDROOT
BRANCH   1  16
ATOM     15  C   UNL     1     -44.023 -22.360 -60.774  0.00  0.00    +0.000 C 
ATOM     16  C   UNL     1     -44.919 -23.438 -61.352  0.00  0.00    +0.000 C 
ATOM     17  O   UNL     1     -44.641 -24.623 -61.168  0.00  0.00    +0.000 OA
ENDBRANCH   1  16
BRANCH   2  18
ATOM     18  S   UNL     1     -44.661 -22.824 -64.483  0.00  0.00    +0.000 S 
ATOM     19  O   UNL     1     -44.357 -24.298 -64.535  0.00  0.00    +0.000 OA
BRANCH  18  20
ATOM     20  C   UNL     1     -45.449 -22.407 -66.085  0.00  0.00    +0.000 C 
BRANCH  20  21
ATOM     21  C   UNL     1     -45.113 -23.342 -67.200  0.00  0.00    +0.000 A 
ATOM     22  C   UNL     1     -45.743 -24.538 -67.633  0.00  0.00    +0.000 A 
ATOM     23  C   UNL     1     -45.050 -24.912 -68.758  0.00  0.00    +0.000 A 
ATOM     24  C   UNL     1     -45.142 -26.028 -69.718  0.00  0.00    +0.000 C 
ATOM     25  O   UNL     1     -44.074 -23.998 -68.999  0.00  0.00    +0.000 OA
ATOM     26  N   UNL     1     -44.113 -23.013 -68.034  0.00  0.00    +0.000 NA
ENDBRANCH  20  21
ENDBRANCH  18  20
ENDBRANCH   2  18
TORSDOF 4
