REMARK VINA RESULT:    -6.100     12.197     14.065
REMARK INTER + INTRA:          -8.753
REMARK INTER:                  -7.599
REMARK INTRA:                  -1.154
REMARK UNBOUND:                -0.870
REMARK  Name = 
REMARK  8 active torsions:
REMARK  status: ('A' for Active; 'I' for Inactive)
REMARK    1  A    between atoms: C_1  and  C_2
REMARK    2  A    between atoms: C_4  and  C_5
REMARK    3  A    between atoms: C_5  and  S_6
REMARK    4  A    between atoms: S_6  and  C_8
REMARK    5  A    between atoms: C_20  and  C_21
REMARK    6  A    between atoms: C_21  and  C_23
REMARK    7  A    between atoms: C_23  and  C_24
REMARK    8  A    between atoms: C_23  and  C_25
REMARK                            x       y       z     vdW  Elec       q    Type
REMARK                         _______ _______ _______ _____ _____    ______ ____
ROOT
ATOM      1  C   UNL     1     -55.511 -41.617 -63.116  0.00  0.00    +0.000 A 
ATOM      2  N   UNL     1     -54.944 -42.878 -62.959  0.00  0.00    +0.000 N 
ATOM      3  C   UNL     1     -53.573 -43.105 -63.191  0.00  0.00    +0.000 A 
ATOM      4  C   UNL     1     -52.898 -44.219 -62.657  0.00  0.00    +0.000 A 
ATOM      5 BR   UNL     1     -53.764 -45.399 -61.451  0.00  0.00    +0.000 Br
ATOM      6  C   UNL     1     -51.557 -44.463 -62.968  0.00  0.00    +0.000 A 
ATOM      7  C   UNL     1     -50.870 -43.595 -63.811  0.00  0.00    +0.000 A 
ATOM      8  C   UNL     1     -51.525 -42.472 -64.350  0.00  0.00    +0.000 A 
ATOM      9 CL   UNL     1     -50.552 -41.430 -65.324  0.00  0.00    +0.000 Cl
ATOM     10  C   UNL     1     -52.880 -42.230 -64.043  0.00  0.00    +0.000 A 
ATOM     11  C   UNL     1     -53.668 -41.093 -64.585  0.00  0.00    +0.000 A 
ATOM     12  O   UNL     1     -53.333 -40.559 -65.638  0.00  0.00    +0.000 OA
ATOM     13  C   UNL     1     -54.903 -40.631 -63.817  0.00  0.00    +0.000 A 
ATOM     14  H   UNL     1     -55.375 -43.439 -62.212  0.00  0.00    +0.000 HD
ENDROOT
BRANCH   1  15
ATOM     15  S   UNL     1     -57.022 -41.429 -62.096  0.00  0.00    +0.000 S 
ATOM     16  O   UNL     1     -56.742 -40.209 -61.261  0.00  0.00    +0.000 OA
BRANCH  15  17
ATOM     17  C   UNL     1     -56.980 -42.894 -61.010  0.00  0.00    +0.000 C 
BRANCH  17  21
ATOM     18  C   UNL     1     -54.259 -42.324 -56.643  0.00  0.00    +0.000 C 
ATOM     19  C   UNL     1     -55.197 -42.413 -57.783  0.00  0.00    +0.000 A 
ATOM     20  C   UNL     1     -55.079 -42.712 -59.121  0.00  0.00    +0.000 A 
ATOM     21  C   UNL     1     -56.406 -42.642 -59.636  0.00  0.00    +0.000 A 
ATOM     22  N   UNL     1     -57.257 -42.299 -58.654  0.00  0.00    +0.000 NA
ATOM     23  O   UNL     1     -56.502 -42.162 -57.504  0.00  0.00    +0.000 OA
ENDBRANCH  17  21
ENDBRANCH  15  17
ENDBRANCH   1  15
BRANCH  13  24
ATOM     24  C   UNL     1     -55.248 -39.161 -63.907  0.00  0.00    +0.000 C 
ATOM     25  O   UNL     1     -56.241 -38.796 -64.535  0.00  0.00    +0.000 OA
BRANCH  24  26
ATOM     26  C   UNL     1     -54.331 -38.112 -63.277  0.00  0.00    +0.000 C 
ATOM     27  C   UNL     1     -53.622 -37.271 -64.335  0.00  0.00    +0.000 C 
ATOM     28  C   UNL     1     -55.084 -37.208 -62.297  0.00  0.00    +0.000 C 
ENDBRANCH  24  26
ENDBRANCH  13  24
TORSDOF 5
