REMARK VINA RESULT:    -5.575     13.078     15.178
REMARK INTER + INTRA:          -8.055
REMARK INTER:                  -7.228
REMARK INTRA:                  -0.827
REMARK UNBOUND:                -0.850
REMARK  Name = 
REMARK  6 active torsions:
REMARK  status: ('A' for Active; 'I' for Inactive)
REMARK    1  A    between atoms: C_1  and  C_2
REMARK    2  A    between atoms: C_4  and  C_5
REMARK    3  A    between atoms: C_5  and  S_6
REMARK    4  A    between atoms: S_6  and  C_8
REMARK    5  A    between atoms: C_20  and  C_21
REMARK    6  A    between atoms: C_21  and  C_23
REMARK                            x       y       z     vdW  Elec       q    Type
REMARK                         _______ _______ _______ _____ _____    ______ ____
ROOT
ATOM      1  C   UNL     1     -58.345 -38.674 -61.862  0.00  0.00    +0.000 A 
ATOM      2  N   UNL     1     -59.000 -37.436 -61.712  0.00  0.00    +0.000 N 
ATOM      3  C   UNL     1     -58.379 -36.232 -62.142  0.00  0.00    +0.000 A 
ATOM      4  C   UNL     1     -59.093 -35.044 -62.386  0.00  0.00    +0.000 A 
ATOM      5 BR   UNL     1     -60.989 -35.013 -62.331  0.00  0.00    +0.000 Br
ATOM      6  C   UNL     1     -58.429 -33.850 -62.702  0.00  0.00    +0.000 A 
ATOM      7  C   UNL     1     -57.034 -33.840 -62.804  0.00  0.00    +0.000 A 
ATOM      8  C   UNL     1     -56.304 -35.006 -62.569  0.00  0.00    +0.000 A 
ATOM      9 CL   UNL     1     -54.594 -34.906 -62.791  0.00  0.00    +0.000 Cl
ATOM     10  C   UNL     1     -56.978 -36.185 -62.218  0.00  0.00    +0.000 A 
ATOM     11  C   UNL     1     -56.288 -37.442 -61.867  0.00  0.00    +0.000 A 
ATOM     12  O   UNL     1     -55.181 -37.445 -61.342  0.00  0.00    +0.000 OA
ATOM     13  C   UNL     1     -57.016 -38.733 -62.100  0.00  0.00    +0.000 A 
ATOM     14  H   UNL     1     -60.000 -37.494 -61.948  0.00  0.00    +0.000 HD
ENDROOT
BRANCH   1  15
ATOM     15  S   UNL     1     -59.498 -40.042 -62.147  0.00  0.00    +0.000 S 
ATOM     16  O   UNL     1     -60.857 -39.423 -61.968  0.00  0.00    +0.000 OA
BRANCH  15  17
ATOM     17  C   UNL     1     -59.293 -41.290 -60.842  0.00  0.00    +0.000 C 
BRANCH  17  21
ATOM     18  C   UNL     1     -61.177 -46.041 -61.149  0.00  0.00    +0.000 C 
ATOM     19  C   UNL     1     -60.503 -44.731 -61.218  0.00  0.00    +0.000 A 
ATOM     20  C   UNL     1     -60.690 -43.515 -60.606  0.00  0.00    +0.000 A 
ATOM     21  C   UNL     1     -59.618 -42.717 -61.066  0.00  0.00    +0.000 A 
ATOM     22  N   UNL     1     -58.875 -43.396 -61.958  0.00  0.00    +0.000 NA
ATOM     23  O   UNL     1     -59.432 -44.654 -62.048  0.00  0.00    +0.000 OA
ENDBRANCH  17  21
ENDBRANCH  15  17
ENDBRANCH   1  15
BRANCH  13  24
ATOM     24  C   UNL     1     -56.170 -39.795 -62.714  0.00  0.00    +0.000 C 
ATOM     25  O   UNL     1     -55.984 -40.851 -62.135  0.00  0.00    +0.000 OA
BRANCH  24  26
ATOM     26  C   UNL     1     -55.603 -39.565 -64.056  0.00  0.00    +0.000 C 
ATOM     27  C   UNL     1     -54.728 -40.621 -64.682  0.00  0.00    +0.000 C 
ATOM     28  C   UNL     1     -54.125 -39.319 -64.250  0.00  0.00    +0.000 C 
ENDBRANCH  24  26
ENDBRANCH  13  24
TORSDOF 5
