REMARK VINA RESULT:    -5.427     12.618     14.998
REMARK INTER + INTRA:          -7.953
REMARK INTER:                  -6.971
REMARK INTRA:                  -0.982
REMARK UNBOUND:                -0.940
REMARK  Name = 
REMARK  6 active torsions:
REMARK  status: ('A' for Active; 'I' for Inactive)
REMARK    1  A    between atoms: C_1  and  C_2
REMARK    2  A    between atoms: C_4  and  C_5
REMARK    3  A    between atoms: C_5  and  S_6
REMARK    4  A    between atoms: S_6  and  C_8
REMARK    5  A    between atoms: C_20  and  C_21
REMARK    6  A    between atoms: C_21  and  C_23
REMARK                            x       y       z     vdW  Elec       q    Type
REMARK                         _______ _______ _______ _____ _____    ______ ____
ROOT
ATOM      1  C   UNL     1     -56.097 -43.417 -78.050  0.00  0.00    +0.000 A 
ATOM      2  N   UNL     1     -56.302 -42.945 -79.361  0.00  0.00    +0.000 N 
ATOM      3  C   UNL     1     -55.537 -41.859 -79.867  0.00  0.00    +0.000 A 
ATOM      4  C   UNL     1     -55.401 -41.591 -81.242  0.00  0.00    +0.000 A 
ATOM      5 BR   UNL     1     -56.094 -42.782 -82.546  0.00  0.00    +0.000 Br
ATOM      6  C   UNL     1     -54.728 -40.447 -81.695  0.00  0.00    +0.000 A 
ATOM      7  C   UNL     1     -54.157 -39.568 -80.768  0.00  0.00    +0.000 A 
ATOM      8  C   UNL     1     -54.277 -39.814 -79.400  0.00  0.00    +0.000 A 
ATOM      9 CL   UNL     1     -53.475 -38.709 -78.342  0.00  0.00    +0.000 Cl
ATOM     10  C   UNL     1     -54.983 -40.943 -78.959  0.00  0.00    +0.000 A 
ATOM     11  C   UNL     1     -55.235 -41.240 -77.535  0.00  0.00    +0.000 A 
ATOM     12  O   UNL     1     -55.348 -40.350 -76.702  0.00  0.00    +0.000 OA
ATOM     13  C   UNL     1     -55.431 -42.673 -77.139  0.00  0.00    +0.000 A 
ATOM     14  H   UNL     1     -56.430 -43.712 -80.035  0.00  0.00    +0.000 HD
ENDROOT
BRANCH   1  15
ATOM     15  S   UNL     1     -56.399 -45.197 -77.895  0.00  0.00    +0.000 S 
ATOM     16  O   UNL     1     -55.123 -45.831 -78.378  0.00  0.00    +0.000 OA
BRANCH  15  17
ATOM     17  C   UNL     1     -57.719 -45.691 -79.042  0.00  0.00    +0.000 C 
BRANCH  17  21
ATOM     18  C   UNL     1     -62.273 -43.854 -77.590  0.00  0.00    +0.000 C 
ATOM     19  C   UNL     1     -61.050 -44.408 -78.200  0.00  0.00    +0.000 A 
ATOM     20  C   UNL     1     -59.758 -44.600 -77.772  0.00  0.00    +0.000 A 
ATOM     21  C   UNL     1     -59.125 -45.271 -78.843  0.00  0.00    +0.000 A 
ATOM     22  N   UNL     1     -59.972 -45.409 -79.879  0.00  0.00    +0.000 NA
ATOM     23  O   UNL     1     -61.173 -44.869 -79.471  0.00  0.00    +0.000 OA
ENDBRANCH  17  21
ENDBRANCH  15  17
ENDBRANCH   1  15
BRANCH  13  24
ATOM     24  C   UNL     1     -54.706 -43.055 -75.894  0.00  0.00    +0.000 C 
ATOM     25  O   UNL     1     -55.278 -43.049 -74.818  0.00  0.00    +0.000 OA
BRANCH  24  26
ATOM     26  C   UNL     1     -53.299 -43.486 -75.994  0.00  0.00    +0.000 C 
ATOM     27  C   UNL     1     -52.508 -43.731 -74.735  0.00  0.00    +0.000 C 
ATOM     28  C   UNL     1     -52.168 -42.562 -75.608  0.00  0.00    +0.000 C 
ENDBRANCH  24  26
ENDBRANCH  13  24
TORSDOF 5
