=
 OpenBabel09172513113D

 26 28  0  0  0  0  0  0  0  0999 V2000
  -55.9440  -41.1560  -63.8190 C   0  0  0  0  0  0  0  0  0  0  0  0
  -54.8220  -40.4180  -63.9650 C   0  0  0  0  0  0  0  0  0  0  0  0
  -54.7080  -39.1120  -63.5310 N   0  0  0  0  0  0  0  0  0  0  0  0
  -55.7950  -38.3820  -63.0200 C   0  0  0  0  0  0  0  0  0  0  0  0
  -55.6360  -37.0470  -62.6060 C   0  0  0  0  0  0  0  0  0  0  0  0
  -53.9630  -36.1610  -62.7800 Br  0  0  0  0  0  0  0  0  0  0  0  0
  -56.6960  -36.3350  -62.0500 C   0  0  0  0  0  3  0  0  0  0  0  0
  -57.9330  -36.9530  -61.8990 C   0  0  0  0  0  3  0  0  0  0  0  0
  -58.1140  -38.2880  -62.2820 C   0  0  0  0  0  0  0  0  0  0  0  0
  -59.7090  -38.9120  -62.0420 Cl  0  0  0  0  0  0  0  0  0  0  0  0
  -57.0340  -39.0160  -62.8230 C   0  0  0  0  0  0  0  0  0  0  0  0
  -57.1360  -40.4430  -63.2370 C   0  0  0  0  0  0  0  0  0  0  0  0
  -58.2090  -41.0310  -63.1460 O   0  0  0  0  0  0  0  0  0  0  0  0
  -53.9840  -38.5570  -63.9880 H   0  0  0  0  0  0  0  0  0  0  0  0
  -55.7460  -43.6850  -63.2350 C   0  0  0  0  0  1  0  0  0  0  0  0
  -56.0800  -42.5970  -64.2340 C   0  0  0  0  0  0  0  0  0  0  0  0
  -56.4430  -42.9150  -65.3670 O   0  0  0  0  0  0  0  0  0  0  0  0
  -53.3950  -41.0360  -64.9220 S   0  0  1  0  0  0  0  0  0  0  0  0
  -52.7650  -39.7790  -65.4580 O   0  0  0  0  0  0  0  0  0  0  0  0
  -52.3230  -41.5840  -63.5450 C   0  0  0  0  0  2  0  0  0  0  0  0
  -51.6160  -42.8540  -63.8830 C   0  0  0  0  0  0  0  0  0  0  0  0
  -50.3680  -43.0400  -64.5340 C   0  0  0  0  0  3  0  0  0  0  0  0
  -50.1860  -44.4010  -64.5510 C   0  0  0  0  0  0  0  0  0  0  0  0
  -49.1370  -45.3000  -65.0710 C   0  0  0  0  0  1  0  0  0  0  0  0
  -51.2420  -44.9980  -63.9380 O   0  0  0  0  0  0  0  0  0  0  0  0
  -52.1370  -44.0330  -63.5100 N   0  0  0  0  0  0  0  0  0  0  0  0
  1 12  1  0  0  0  0
  2  1  2  0  0  0  0
  2  3  1  0  0  0  0
  3  4  1  0  0  0  0
  4 11  2  0  0  0  0
  4  5  1  0  0  0  0
  5  7  2  0  0  0  0
  6  5  1  0  0  0  0
  7  8  1  0  0  0  0
  9 10  1  0  0  0  0
  9  8  2  0  0  0  0
 11  9  1  0  0  0  0
 12 13  2  0  0  0  0
 12 11  1  0  0  0  0
 14  3  1  0  0  0  0
 16  1  1  0  0  0  0
 16 15  1  0  0  0  0
 17 16  2  0  0  0  0
 18 19  2  1  0  0  0
 18  2  1  0  0  0  0
 18 20  1  0  0  0  0
 21 20  1  0  0  0  0
 21 26  2  0  0  0  0
 22 21  1  0  0  0  0
 23 22  2  0  0  0  0
 23 25  1  0  0  0  0
 24 23  1  0  0  0  0
 25 26  1  0  0  0  0
M  END
>  <MODEL>
1

>  <REMARK>
 VINA RESULT:    -6.518      0.000      0.000
 INTER + INTRA:          -8.722
 INTER:                  -8.042
 INTRA:                  -0.681
 UNBOUND:                -0.681
  Name = 
  6 active torsions:
  status: ('A' for Active; 'I' for Inactive)
    1  A    between atoms: C_1  and  C_2
    2  A    between atoms: C_2  and  C_4
    3  A    between atoms: C_5  and  S_6
    4  A    between atoms: S_6  and  C_8
    5  A    between atoms: C_8  and  C_9
    6  A    between atoms: C_11  and  C_12
                            x       y       z     vdW  Elec       q    Type
                         _______ _______ _______ _____ _____    ______ ____

>  <TORSDO>
F 4

$$$$
