REMARK VINA RESULT:    -4.861     18.968     21.056
REMARK INTER + INTRA:          -7.173
REMARK INTER:                  -6.326
REMARK INTRA:                  -0.846
REMARK UNBOUND:                -0.891
REMARK  Name = 
REMARK  6 active torsions:
REMARK  status: ('A' for Active; 'I' for Inactive)
REMARK    1  A    between atoms: C_1  and  C_2
REMARK    2  A    between atoms: C_4  and  C_5
REMARK    3  A    between atoms: C_5  and  S_6
REMARK    4  A    between atoms: S_6  and  C_8
REMARK    5  A    between atoms: C_20  and  C_21
REMARK    6  A    between atoms: C_21  and  C_23
REMARK                            x       y       z     vdW  Elec       q    Type
REMARK                         _______ _______ _______ _____ _____    ______ ____
ROOT
ATOM      1  C   UNL     1     -43.303 -25.514 -69.994  0.00  0.00    +0.000 A 
ATOM      2  N   UNL     1     -42.215 -24.645 -70.206  0.00  0.00    +0.000 N 
ATOM      3  C   UNL     1     -41.407 -24.767 -71.370  0.00  0.00    +0.000 A 
ATOM      4  C   UNL     1     -40.578 -23.732 -71.842  0.00  0.00    +0.000 A 
ATOM      5 BR   UNL     1     -40.614 -22.010 -71.047  0.00  0.00    +0.000 Br
ATOM      6  C   UNL     1     -39.716 -23.932 -72.929  0.00  0.00    +0.000 A 
ATOM      7  C   UNL     1     -39.696 -25.173 -73.577  0.00  0.00    +0.000 A 
ATOM      8  C   UNL     1     -40.510 -26.213 -73.129  0.00  0.00    +0.000 A 
ATOM      9 CL   UNL     1     -40.464 -27.679 -74.040  0.00  0.00    +0.000 Cl
ATOM     10  C   UNL     1     -41.342 -26.011 -72.017  0.00  0.00    +0.000 A 
ATOM     11  C   UNL     1     -42.173 -27.075 -71.420  0.00  0.00    +0.000 A 
ATOM     12  O   UNL     1     -41.837 -28.252 -71.457  0.00  0.00    +0.000 OA
ATOM     13  C   UNL     1     -43.416 -26.668 -70.687  0.00  0.00    +0.000 A 
ATOM     14  H   UNL     1     -42.440 -23.671 -69.958  0.00  0.00    +0.000 HD
ENDROOT
BRANCH   1  15
ATOM     15  S   UNL     1     -44.661 -24.721 -69.093  0.00  0.00    +0.000 S 
ATOM     16  O   UNL     1     -44.254 -23.276 -69.007  0.00  0.00    +0.000 OA
BRANCH  15  17
ATOM     17  C   UNL     1     -44.724 -25.370 -67.397  0.00  0.00    +0.000 C 
BRANCH  17  21
ATOM     18  C   UNL     1     -48.788 -23.597 -64.836  0.00  0.00    +0.000 C 
ATOM     19  C   UNL     1     -47.616 -24.266 -65.431  0.00  0.00    +0.000 A 
ATOM     20  C   UNL     1     -46.851 -24.058 -66.554  0.00  0.00    +0.000 A 
ATOM     21  C   UNL     1     -45.821 -25.021 -66.465  0.00  0.00    +0.000 A 
ATOM     22  N   UNL     1     -46.001 -25.805 -65.388  0.00  0.00    +0.000 NA
ATOM     23  O   UNL     1     -47.123 -25.328 -64.745  0.00  0.00    +0.000 OA
ENDBRANCH  17  21
ENDBRANCH  15  17
ENDBRANCH   1  15
BRANCH  13  24
ATOM     24  C   UNL     1     -44.600 -27.519 -70.997  0.00  0.00    +0.000 C 
ATOM     25  O   UNL     1     -45.059 -27.554 -72.126  0.00  0.00    +0.000 OA
BRANCH  24  26
ATOM     26  C   UNL     1     -45.176 -28.354 -69.926  0.00  0.00    +0.000 C 
ATOM     27  C   UNL     1     -44.258 -29.042 -68.949  0.00  0.00    +0.000 C 
ATOM     28  C   UNL     1     -45.031 -29.857 -69.941  0.00  0.00    +0.000 C 
ENDBRANCH  24  26
ENDBRANCH  13  24
TORSDOF 5
