MODEL 1
REMARK VINA RESULT:    -6.694      0.000      0.000
REMARK INTER + INTRA:          -9.340
REMARK INTER:                  -8.259
REMARK INTRA:                  -1.082
REMARK UNBOUND:                -1.082
REMARK  Name = 
REMARK  6 active torsions:
REMARK  status: ('A' for Active; 'I' for Inactive)
REMARK    1  A    between atoms: C_1  and  C_2
REMARK    2  A    between atoms: C_2  and  C_4
REMARK    3  A    between atoms: C_5  and  S_6
REMARK    4  A    between atoms: S_6  and  C_8
REMARK    5  A    between atoms: C_8  and  C_9
REMARK    6  A    between atoms: C_11  and  C_12
REMARK                            x       y       z     vdW  Elec       q    Type
REMARK                         _______ _______ _______ _____ _____    ______ ____
ROOT
ATOM      1  C   UNL     1     -55.339 -42.836 -62.652  0.00  0.00    +0.000 A 
ATOM      2  C   UNL     1     -55.114 -41.642 -63.243  0.00  0.00    +0.000 A 
ATOM      3  N   UNL     1     -53.957 -41.339 -63.934  0.00  0.00    +0.000 N 
ATOM      4  C   UNL     1     -52.842 -42.192 -63.961  0.00  0.00    +0.000 A 
ATOM      5  C   UNL     1     -51.667 -41.819 -64.641  0.00  0.00    +0.000 A 
ATOM      6 BR   UNL     1     -51.517 -40.116 -65.469  0.00  0.00    +0.000 Br
ATOM      7  C   UNL     1     -50.578 -42.682 -64.718  0.00  0.00    +0.000 A 
ATOM      8  C   UNL     1     -50.654 -43.939 -64.124  0.00  0.00    +0.000 A 
ATOM      9  C   UNL     1     -51.820 -44.343 -63.461  0.00  0.00    +0.000 A 
ATOM     10 CL   UNL     1     -51.758 -45.925 -62.767  0.00  0.00    +0.000 Cl
ATOM     11  C   UNL     1     -52.929 -43.475 -63.393  0.00  0.00    +0.000 A 
ATOM     12  C   UNL     1     -54.205 -43.829 -62.710  0.00  0.00    +0.000 A 
ATOM     13  O   UNL     1     -54.321 -44.913 -62.155  0.00  0.00    +0.000 OA
ATOM     14  H   UNL     1     -53.745 -40.342 -64.017  0.00  0.00    +0.000 HD
ENDROOT
BRANCH   1  16
ATOM     15  C   UNL     1     -57.709 -43.917 -62.670  0.00  0.00    +0.000 C 
ATOM     16  C   UNL     1     -56.605 -43.207 -61.922  0.00  0.00    +0.000 C 
ATOM     17  O   UNL     1     -56.767 -42.934 -60.731  0.00  0.00    +0.000 OA
ENDBRANCH   1  16
BRANCH   2  18
ATOM     18  S   UNL     1     -56.270 -40.248 -63.035  0.00  0.00    +0.000 S 
ATOM     19  O   UNL     1     -55.417 -39.178 -62.405  0.00  0.00    +0.000 OA
BRANCH  18  20
ATOM     20  C   UNL     1     -56.472 -39.762 -64.788  0.00  0.00    +0.000 C 
BRANCH  20  21
ATOM     21  C   UNL     1     -56.889 -40.908 -65.650  0.00  0.00    +0.000 A 
ATOM     22  C   UNL     1     -58.117 -41.619 -65.695  0.00  0.00    +0.000 A 
ATOM     23  C   UNL     1     -57.935 -42.566 -66.672  0.00  0.00    +0.000 A 
ATOM     24  C   UNL     1     -58.752 -43.670 -67.208  0.00  0.00    +0.000 C 
ATOM     25  O   UNL     1     -56.700 -42.407 -67.218  0.00  0.00    +0.000 OA
ATOM     26  N   UNL     1     -56.045 -41.366 -66.586  0.00  0.00    +0.000 NA
ENDBRANCH  20  21
ENDBRANCH  18  20
ENDBRANCH   2  18
TORSDOF 4
ENDMDL
MODEL 2
REMARK VINA RESULT:    -6.157     12.116     14.847
REMARK INTER + INTRA:          -8.679
REMARK INTER:                  -8.010
REMARK INTRA:                  -0.669
REMARK UNBOUND:                -1.082
REMARK  Name = 
REMARK  6 active torsions:
REMARK  status: ('A' for Active; 'I' for Inactive)
REMARK    1  A    between atoms: C_1  and  C_2
REMARK    2  A    between atoms: C_2  and  C_4
REMARK    3  A    between atoms: C_5  and  S_6
REMARK    4  A    between atoms: S_6  and  C_8
REMARK    5  A    between atoms: C_8  and  C_9
REMARK    6  A    between atoms: C_11  and  C_12
REMARK                            x       y       z     vdW  Elec       q    Type
REMARK                         _______ _______ _______ _____ _____    ______ ____
ROOT
ATOM      1  C   UNL     1     -56.623 -41.920 -76.674  0.00  0.00    +0.000 A 
ATOM      2  C   UNL     1     -55.380 -41.705 -77.158  0.00  0.00    +0.000 A 
ATOM      3  N   UNL     1     -55.112 -41.459 -78.490  0.00  0.00    +0.000 N 
ATOM      4  C   UNL     1     -56.090 -41.556 -79.492  0.00  0.00    +0.000 A 
ATOM      5  C   UNL     1     -55.760 -41.341 -80.844  0.00  0.00    +0.000 A 
ATOM      6 BR   UNL     1     -53.965 -40.999 -81.367  0.00  0.00    +0.000 Br
ATOM      7  C   UNL     1     -56.734 -41.381 -81.836  0.00  0.00    +0.000 A 
ATOM      8  C   UNL     1     -58.059 -41.626 -81.488  0.00  0.00    +0.000 A 
ATOM      9  C   UNL     1     -58.419 -41.821 -80.148  0.00  0.00    +0.000 A 
ATOM     10 CL   UNL     1     -60.099 -42.124 -79.876  0.00  0.00    +0.000 Cl
ATOM     11  C   UNL     1     -57.435 -41.768 -79.140  0.00  0.00    +0.000 A 
ATOM     12  C   UNL     1     -57.734 -41.962 -77.693  0.00  0.00    +0.000 A 
ATOM     13  O   UNL     1     -58.878 -42.199 -77.333  0.00  0.00    +0.000 OA
ATOM     14  H   UNL     1     -54.158 -41.669 -78.791  0.00  0.00    +0.000 HD
ENDROOT
BRANCH   1  16
ATOM     15  C   UNL     1     -57.436 -41.004 -74.375  0.00  0.00    +0.000 C 
ATOM     16  C   UNL     1     -56.950 -42.157 -75.221  0.00  0.00    +0.000 C 
ATOM     17  O   UNL     1     -56.817 -43.267 -74.702  0.00  0.00    +0.000 OA
ENDBRANCH   1  16
BRANCH   2  18
ATOM     18  S   UNL     1     -53.906 -41.889 -76.100  0.00  0.00    +0.000 S 
ATOM     19  O   UNL     1     -53.586 -43.358 -76.200  0.00  0.00    +0.000 OA
BRANCH  18  20
ATOM     20  C   UNL     1     -52.675 -41.034 -77.151  0.00  0.00    +0.000 C 
BRANCH  20  21
ATOM     21  C   UNL     1     -51.483 -40.581 -76.373  0.00  0.00    +0.000 A 
ATOM     22  C   UNL     1     -51.024 -39.268 -76.086  0.00  0.00    +0.000 A 
ATOM     23  C   UNL     1     -49.887 -39.454 -75.339  0.00  0.00    +0.000 A 
ATOM     24  C   UNL     1     -48.876 -38.554 -74.754  0.00  0.00    +0.000 C 
ATOM     25  O   UNL     1     -49.699 -40.785 -75.142  0.00  0.00    +0.000 OA
ATOM     26  N   UNL     1     -50.699 -41.494 -75.781  0.00  0.00    +0.000 NA
ENDBRANCH  20  21
ENDBRANCH  18  20
ENDBRANCH   2  18
TORSDOF 4
ENDMDL
MODEL 3
REMARK VINA RESULT:    -6.072     12.599     14.851
REMARK INTER + INTRA:          -8.573
REMARK INTER:                  -7.832
REMARK INTRA:                  -0.741
REMARK UNBOUND:                -1.082
REMARK  Name = 
REMARK  6 active torsions:
REMARK  status: ('A' for Active; 'I' for Inactive)
REMARK    1  A    between atoms: C_1  and  C_2
REMARK    2  A    between atoms: C_2  and  C_4
REMARK    3  A    between atoms: C_5  and  S_6
REMARK    4  A    between atoms: S_6  and  C_8
REMARK    5  A    between atoms: C_8  and  C_9
REMARK    6  A    between atoms: C_11  and  C_12
REMARK                            x       y       z     vdW  Elec       q    Type
REMARK                         _______ _______ _______ _____ _____    ______ ____
ROOT
ATOM      1  C   UNL     1     -53.407 -41.403 -78.058  0.00  0.00    +0.000 A 
ATOM      2  C   UNL     1     -54.728 -41.211 -78.267  0.00  0.00    +0.000 A 
ATOM      3  N   UNL     1     -55.349 -41.438 -79.480  0.00  0.00    +0.000 N 
ATOM      4  C   UNL     1     -54.639 -41.745 -80.651  0.00  0.00    +0.000 A 
ATOM      5  C   UNL     1     -55.312 -41.922 -81.875  0.00  0.00    +0.000 A 
ATOM      6 BR   UNL     1     -57.191 -41.664 -82.002  0.00  0.00    +0.000 Br
ATOM      7  C   UNL     1     -54.622 -42.281 -83.029  0.00  0.00    +0.000 A 
ATOM      8  C   UNL     1     -53.246 -42.480 -82.972  0.00  0.00    +0.000 A 
ATOM      9  C   UNL     1     -52.555 -42.334 -81.761  0.00  0.00    +0.000 A 
ATOM     10 CL   UNL     1     -50.850 -42.604 -81.852  0.00  0.00    +0.000 Cl
ATOM     11  C   UNL     1     -53.255 -41.982 -80.589  0.00  0.00    +0.000 A 
ATOM     12  C   UNL     1     -52.596 -41.809 -79.264  0.00  0.00    +0.000 A 
ATOM     13  O   UNL     1     -51.386 -41.954 -79.159  0.00  0.00    +0.000 OA
ATOM     14  H   UNL     1     -56.228 -40.935 -79.622  0.00  0.00    +0.000 HD
ENDROOT
BRANCH   1  16
ATOM     15  C   UNL     1     -52.604 -42.352 -75.769  0.00  0.00    +0.000 C 
ATOM     16  C   UNL     1     -52.708 -41.198 -76.738  0.00  0.00    +0.000 C 
ATOM     17  O   UNL     1     -52.230 -40.106 -76.423  0.00  0.00    +0.000 OA
ENDBRANCH   1  16
BRANCH   2  18
ATOM     18  S   UNL     1     -55.792 -40.467 -76.987  0.00  0.00    +0.000 S 
ATOM     19  O   UNL     1     -57.007 -40.023 -77.759  0.00  0.00    +0.000 OA
BRANCH  18  20
ATOM     20  C   UNL     1     -56.291 -41.985 -76.094  0.00  0.00    +0.000 C 
BRANCH  20  21
ATOM     21  C   UNL     1     -56.590 -41.723 -74.654  0.00  0.00    +0.000 A 
ATOM     22  C   UNL     1     -56.021 -42.292 -73.484  0.00  0.00    +0.000 A 
ATOM     23  C   UNL     1     -56.678 -41.680 -72.445  0.00  0.00    +0.000 A 
ATOM     24  C   UNL     1     -56.647 -41.817 -70.978  0.00  0.00    +0.000 C 
ATOM     25  O   UNL     1     -57.548 -40.766 -72.949  0.00  0.00    +0.000 OA
ATOM     26  N   UNL     1     -57.492 -40.784 -74.331  0.00  0.00    +0.000 NA
ENDBRANCH  20  21
ENDBRANCH  18  20
ENDBRANCH   2  18
TORSDOF 4
ENDMDL
MODEL 4
REMARK VINA RESULT:    -6.068     12.452     13.777
REMARK INTER + INTRA:          -8.568
REMARK INTER:                  -7.711
REMARK INTRA:                  -0.857
REMARK UNBOUND:                -1.082
REMARK  Name = 
REMARK  6 active torsions:
REMARK  status: ('A' for Active; 'I' for Inactive)
REMARK    1  A    between atoms: C_1  and  C_2
REMARK    2  A    between atoms: C_2  and  C_4
REMARK    3  A    between atoms: C_5  and  S_6
REMARK    4  A    between atoms: S_6  and  C_8
REMARK    5  A    between atoms: C_8  and  C_9
REMARK    6  A    between atoms: C_11  and  C_12
REMARK                            x       y       z     vdW  Elec       q    Type
REMARK                         _______ _______ _______ _____ _____    ______ ____
ROOT
ATOM      1  C   UNL     1     -57.314 -43.809 -77.695  0.00  0.00    +0.000 A 
ATOM      2  C   UNL     1     -56.290 -43.145 -77.114  0.00  0.00    +0.000 A 
ATOM      3  N   UNL     1     -55.230 -43.774 -76.490  0.00  0.00    +0.000 N 
ATOM      4  C   UNL     1     -55.192 -45.159 -76.270  0.00  0.00    +0.000 A 
ATOM      5  C   UNL     1     -54.111 -45.749 -75.587  0.00  0.00    +0.000 A 
ATOM      6 BR   UNL     1     -52.713 -44.683 -74.865  0.00  0.00    +0.000 Br
ATOM      7  C   UNL     1     -54.038 -47.128 -75.413  0.00  0.00    +0.000 A 
ATOM      8  C   UNL     1     -55.043 -47.939 -75.931  0.00  0.00    +0.000 A 
ATOM      9  C   UNL     1     -56.118 -47.380 -76.634  0.00  0.00    +0.000 A 
ATOM     10 CL   UNL     1     -57.290 -48.514 -77.207  0.00  0.00    +0.000 Cl
ATOM     11  C   UNL     1     -56.186 -45.984 -76.822  0.00  0.00    +0.000 A 
ATOM     12  C   UNL     1     -57.293 -45.311 -77.559  0.00  0.00    +0.000 A 
ATOM     13  O   UNL     1     -58.212 -45.974 -78.019  0.00  0.00    +0.000 OA
ATOM     14  H   UNL     1     -54.731 -43.208 -75.799  0.00  0.00    +0.000 HD
ENDROOT
BRANCH   1  16
ATOM     15  C   UNL     1     -59.737 -42.852 -77.655  0.00  0.00    +0.000 C 
ATOM     16  C   UNL     1     -58.465 -43.152 -78.413  0.00  0.00    +0.000 C 
ATOM     17  O   UNL     1     -58.401 -42.867 -79.611  0.00  0.00    +0.000 OA
ENDBRANCH   1  16
BRANCH   2  18
ATOM     18  S   UNL     1     -56.305 -41.328 -76.959  0.00  0.00    +0.000 S 
ATOM     19  O   UNL     1     -55.700 -41.090 -75.600  0.00  0.00    +0.000 OA
BRANCH  18  20
ATOM     20  C   UNL     1     -54.998 -40.914 -78.170  0.00  0.00    +0.000 C 
BRANCH  20  21
ATOM     21  C   UNL     1     -53.685 -40.636 -77.515  0.00  0.00    +0.000 A 
ATOM     22  C   UNL     1     -52.662 -41.530 -77.102  0.00  0.00    +0.000 A 
ATOM     23  C   UNL     1     -51.691 -40.722 -76.564  0.00  0.00    +0.000 A 
ATOM     24  C   UNL     1     -50.397 -40.962 -75.898  0.00  0.00    +0.000 C 
ATOM     25  O   UNL     1     -52.075 -39.425 -76.689  0.00  0.00    +0.000 OA
ATOM     26  N   UNL     1     -53.319 -39.365 -77.290  0.00  0.00    +0.000 NA
ENDBRANCH  20  21
ENDBRANCH  18  20
ENDBRANCH   2  18
TORSDOF 4
ENDMDL
MODEL 5
REMARK VINA RESULT:    -5.947     13.179     15.777
REMARK INTER + INTRA:          -8.420
REMARK INTER:                  -7.720
REMARK INTRA:                  -0.700
REMARK UNBOUND:                -1.082
REMARK  Name = 
REMARK  6 active torsions:
REMARK  status: ('A' for Active; 'I' for Inactive)
REMARK    1  A    between atoms: C_1  and  C_2
REMARK    2  A    between atoms: C_2  and  C_4
REMARK    3  A    between atoms: C_5  and  S_6
REMARK    4  A    between atoms: S_6  and  C_8
REMARK    5  A    between atoms: C_8  and  C_9
REMARK    6  A    between atoms: C_11  and  C_12
REMARK                            x       y       z     vdW  Elec       q    Type
REMARK                         _______ _______ _______ _____ _____    ______ ____
ROOT
ATOM      1  C   UNL     1     -55.276 -41.412 -80.161  0.00  0.00    +0.000 A 
ATOM      2  C   UNL     1     -54.809 -41.200 -78.911  0.00  0.00    +0.000 A 
ATOM      3  N   UNL     1     -55.568 -41.390 -77.772  0.00  0.00    +0.000 N 
ATOM      4  C   UNL     1     -56.941 -41.677 -77.813  0.00  0.00    +0.000 A 
ATOM      5  C   UNL     1     -57.682 -41.817 -76.624  0.00  0.00    +0.000 A 
ATOM      6 BR   UNL     1     -56.871 -41.533 -74.929  0.00  0.00    +0.000 Br
ATOM      7  C   UNL     1     -59.031 -42.156 -76.655  0.00  0.00    +0.000 A 
ATOM      8  C   UNL     1     -59.657 -42.373 -77.879  0.00  0.00    +0.000 A 
ATOM      9  C   UNL     1     -58.936 -42.264 -79.076  0.00  0.00    +0.000 A 
ATOM     10 CL   UNL     1     -59.853 -42.553 -80.513  0.00  0.00    +0.000 Cl
ATOM     11  C   UNL     1     -57.567 -41.932 -79.045  0.00  0.00    +0.000 A 
ATOM     12  C   UNL     1     -56.730 -41.799 -80.271  0.00  0.00    +0.000 A 
ATOM     13  O   UNL     1     -57.232 -41.960 -81.374  0.00  0.00    +0.000 OA
ATOM     14  H   UNL     1     -55.255 -40.873 -76.947  0.00  0.00    +0.000 HD
ENDROOT
BRANCH   1  16
ATOM     15  C   UNL     1     -54.512 -39.935 -82.168  0.00  0.00    +0.000 C 
ATOM     16  C   UNL     1     -54.463 -41.247 -81.421  0.00  0.00    +0.000 C 
ATOM     17  O   UNL     1     -53.768 -42.164 -81.865  0.00  0.00    +0.000 OA
ENDBRANCH   1  16
BRANCH   2  18
ATOM     18  S   UNL     1     -53.161 -40.474 -78.624  0.00  0.00    +0.000 S 
ATOM     19  O   UNL     1     -53.382 -39.003 -78.863  0.00  0.00    +0.000 OA
BRANCH  18  20
ATOM     20  C   UNL     1     -53.057 -40.678 -76.809  0.00  0.00    +0.000 C 
BRANCH  20  21
ATOM     21  C   UNL     1     -51.719 -40.287 -76.270  0.00  0.00    +0.000 A 
ATOM     22  C   UNL     1     -51.196 -39.003 -75.965  0.00  0.00    +0.000 A 
ATOM     23  C   UNL     1     -49.925 -39.247 -75.506  0.00  0.00    +0.000 A 
ATOM     24  C   UNL     1     -48.801 -38.396 -75.072  0.00  0.00    +0.000 C 
ATOM     25  O   UNL     1     -49.711 -40.588 -75.484  0.00  0.00    +0.000 OA
ATOM     26  N   UNL     1     -50.834 -41.245 -75.955  0.00  0.00    +0.000 NA
ENDBRANCH  20  21
ENDBRANCH  18  20
ENDBRANCH   2  18
TORSDOF 4
ENDMDL
MODEL 6
REMARK VINA RESULT:    -5.829     12.325     14.291
REMARK INTER + INTRA:          -8.274
REMARK INTER:                  -7.571
REMARK INTRA:                  -0.703
REMARK UNBOUND:                -1.082
REMARK  Name = 
REMARK  6 active torsions:
REMARK  status: ('A' for Active; 'I' for Inactive)
REMARK    1  A    between atoms: C_1  and  C_2
REMARK    2  A    between atoms: C_2  and  C_4
REMARK    3  A    between atoms: C_5  and  S_6
REMARK    4  A    between atoms: S_6  and  C_8
REMARK    5  A    between atoms: C_8  and  C_9
REMARK    6  A    between atoms: C_11  and  C_12
REMARK                            x       y       z     vdW  Elec       q    Type
REMARK                         _______ _______ _______ _____ _____    ______ ____
ROOT
ATOM      1  C   UNL     1     -57.256 -42.361 -76.586  0.00  0.00    +0.000 A 
ATOM      2  C   UNL     1     -56.106 -43.066 -76.523  0.00  0.00    +0.000 A 
ATOM      3  N   UNL     1     -55.995 -44.384 -76.924  0.00  0.00    +0.000 N 
ATOM      4  C   UNL     1     -57.104 -45.160 -77.295  0.00  0.00    +0.000 A 
ATOM      5  C   UNL     1     -56.948 -46.513 -77.652  0.00  0.00    +0.000 A 
ATOM      6 BR   UNL     1     -55.248 -47.358 -77.558  0.00  0.00    +0.000 Br
ATOM      7  C   UNL     1     -58.034 -47.274 -78.074  0.00  0.00    +0.000 A 
ATOM      8  C   UNL     1     -59.293 -46.688 -78.157  0.00  0.00    +0.000 A 
ATOM      9  C   UNL     1     -59.471 -45.337 -77.830  0.00  0.00    +0.000 A 
ATOM     10 CL   UNL     1     -61.094 -44.756 -77.972  0.00  0.00    +0.000 Cl
ATOM     11  C   UNL     1     -58.370 -44.561 -77.414  0.00  0.00    +0.000 A 
ATOM     12  C   UNL     1     -58.475 -43.120 -77.051  0.00  0.00    +0.000 A 
ATOM     13  O   UNL     1     -59.560 -42.558 -77.088  0.00  0.00    +0.000 OA
ATOM     14  H   UNL     1     -55.218 -44.903 -76.510  0.00  0.00    +0.000 HD
ENDROOT
BRANCH   1  16
ATOM     15  C   UNL     1     -57.753 -40.569 -74.762  0.00  0.00    +0.000 C 
ATOM     16  C   UNL     1     -57.400 -40.914 -76.190  0.00  0.00    +0.000 C 
ATOM     17  O   UNL     1     -57.250 -40.003 -77.006  0.00  0.00    +0.000 OA
ENDBRANCH   1  16
BRANCH   2  18
ATOM     18  S   UNL     1     -54.613 -42.376 -75.736  0.00  0.00    +0.000 S 
ATOM     19  O   UNL     1     -53.933 -43.588 -75.156  0.00  0.00    +0.000 OA
BRANCH  18  20
ATOM     20  C   UNL     1     -53.661 -41.935 -77.235  0.00  0.00    +0.000 C 
BRANCH  20  21
ATOM     21  C   UNL     1     -53.317 -40.483 -77.282  0.00  0.00    +0.000 A 
ATOM     22  C   UNL     1     -52.269 -39.770 -76.642  0.00  0.00    +0.000 A 
ATOM     23  C   UNL     1     -52.439 -38.468 -77.044  0.00  0.00    +0.000 A 
ATOM     24  C   UNL     1     -51.767 -37.193 -76.732  0.00  0.00    +0.000 C 
ATOM     25  O   UNL     1     -53.484 -38.404 -77.909  0.00  0.00    +0.000 OA
ATOM     26  N   UNL     1     -54.033 -39.663 -78.068  0.00  0.00    +0.000 NA
ENDBRANCH  20  21
ENDBRANCH  18  20
ENDBRANCH   2  18
TORSDOF 4
ENDMDL
MODEL 7
REMARK VINA RESULT:    -5.596     10.559     13.473
REMARK INTER + INTRA:          -7.987
REMARK INTER:                  -7.136
REMARK INTRA:                  -0.851
REMARK UNBOUND:                -1.082
REMARK  Name = 
REMARK  6 active torsions:
REMARK  status: ('A' for Active; 'I' for Inactive)
REMARK    1  A    between atoms: C_1  and  C_2
REMARK    2  A    between atoms: C_2  and  C_4
REMARK    3  A    between atoms: C_5  and  S_6
REMARK    4  A    between atoms: S_6  and  C_8
REMARK    5  A    between atoms: C_8  and  C_9
REMARK    6  A    between atoms: C_11  and  C_12
REMARK                            x       y       z     vdW  Elec       q    Type
REMARK                         _______ _______ _______ _____ _____    ______ ____
ROOT
ATOM      1  C   UNL     1     -58.812 -45.223 -77.909  0.00  0.00    +0.000 A 
ATOM      2  C   UNL     1     -58.020 -44.239 -77.430  0.00  0.00    +0.000 A 
ATOM      3  N   UNL     1     -56.757 -44.459 -76.915  0.00  0.00    +0.000 N 
ATOM      4  C   UNL     1     -56.236 -45.745 -76.705  0.00  0.00    +0.000 A 
ATOM      5  C   UNL     1     -54.961 -45.919 -76.134  0.00  0.00    +0.000 A 
ATOM      6 BR   UNL     1     -53.940 -44.427 -75.549  0.00  0.00    +0.000 Br
ATOM      7  C   UNL     1     -54.414 -47.189 -75.973  0.00  0.00    +0.000 A 
ATOM      8  C   UNL     1     -55.133 -48.305 -76.392  0.00  0.00    +0.000 A 
ATOM      9  C   UNL     1     -56.394 -48.157 -76.984  0.00  0.00    +0.000 A 
ATOM     10 CL   UNL     1     -57.167 -49.634 -77.443  0.00  0.00    +0.000 Cl
ATOM     11  C   UNL     1     -56.944 -46.871 -77.160  0.00  0.00    +0.000 A 
ATOM     12  C   UNL     1     -58.276 -46.628 -77.781  0.00  0.00    +0.000 A 
ATOM     13  O   UNL     1     -58.959 -47.573 -78.151  0.00  0.00    +0.000 OA
ATOM     14  H   UNL     1     -56.414 -43.739 -76.275  0.00  0.00    +0.000 HD
ENDROOT
BRANCH   1  16
ATOM     15  C   UNL     1     -61.401 -45.149 -77.631  0.00  0.00    +0.000 C 
ATOM     16  C   UNL     1     -60.179 -45.011 -78.508  0.00  0.00    +0.000 C 
ATOM     17  O   UNL     1     -60.326 -44.741 -79.702  0.00  0.00    +0.000 OA
ENDBRANCH   1  16
BRANCH   2  18
ATOM     18  S   UNL     1     -58.629 -42.528 -77.267  0.00  0.00    +0.000 S 
ATOM     19  O   UNL     1     -59.546 -42.597 -76.074  0.00  0.00    +0.000 OA
BRANCH  18  20
ATOM     20  C   UNL     1     -57.096 -41.721 -76.676  0.00  0.00    +0.000 C 
BRANCH  20  21
ATOM     21  C   UNL     1     -57.150 -41.400 -75.218  0.00  0.00    +0.000 A 
ATOM     22  C   UNL     1     -56.618 -42.104 -74.106  0.00  0.00    +0.000 A 
ATOM     23  C   UNL     1     -56.971 -41.348 -73.015  0.00  0.00    +0.000 A 
ATOM     24  C   UNL     1     -56.808 -41.498 -71.557  0.00  0.00    +0.000 C 
ATOM     25  O   UNL     1     -57.626 -40.237 -73.439  0.00  0.00    +0.000 OA
ATOM     26  N   UNL     1     -57.735 -40.260 -74.818  0.00  0.00    +0.000 NA
ENDBRANCH  20  21
ENDBRANCH  18  20
ENDBRANCH   2  18
TORSDOF 4
ENDMDL
MODEL 8
REMARK VINA RESULT:    -5.512     14.940     17.323
REMARK INTER + INTRA:          -7.883
REMARK INTER:                  -7.070
REMARK INTRA:                  -0.813
REMARK UNBOUND:                -1.082
REMARK  Name = 
REMARK  6 active torsions:
REMARK  status: ('A' for Active; 'I' for Inactive)
REMARK    1  A    between atoms: C_1  and  C_2
REMARK    2  A    between atoms: C_2  and  C_4
REMARK    3  A    between atoms: C_5  and  S_6
REMARK    4  A    between atoms: S_6  and  C_8
REMARK    5  A    between atoms: C_8  and  C_9
REMARK    6  A    between atoms: C_11  and  C_12
REMARK                            x       y       z     vdW  Elec       q    Type
REMARK                         _______ _______ _______ _____ _____    ______ ____
ROOT
ATOM      1  C   UNL     1     -68.868 -50.846 -55.394  0.00  0.00    +0.000 A 
ATOM      2  C   UNL     1     -68.036 -49.790 -55.259  0.00  0.00    +0.000 A 
ATOM      3  N   UNL     1     -66.865 -49.831 -54.527  0.00  0.00    +0.000 N 
ATOM      4  C   UNL     1     -66.504 -50.929 -53.732  0.00  0.00    +0.000 A 
ATOM      5  C   UNL     1     -65.322 -50.906 -52.967  0.00  0.00    +0.000 A 
ATOM      6 BR   UNL     1     -64.223 -49.357 -52.914  0.00  0.00    +0.000 Br
ATOM      7  C   UNL     1     -64.929 -52.012 -52.218  0.00  0.00    +0.000 A 
ATOM      8  C   UNL     1     -65.710 -53.164 -52.235  0.00  0.00    +0.000 A 
ATOM      9  C   UNL     1     -66.878 -53.222 -53.006  0.00  0.00    +0.000 A 
ATOM     10 CL   UNL     1     -67.744 -54.715 -52.916  0.00  0.00    +0.000 Cl
ATOM     11  C   UNL     1     -67.270 -52.107 -53.774  0.00  0.00    +0.000 A 
ATOM     12  C   UNL     1     -68.496 -52.087 -54.622  0.00  0.00    +0.000 A 
ATOM     13  O   UNL     1     -69.228 -53.066 -54.659  0.00  0.00    +0.000 OA
ATOM     14  H   UNL     1     -66.521 -48.925 -54.201  0.00  0.00    +0.000 HD
ENDROOT
BRANCH   1  16
ATOM     15  C   UNL     1     -71.440 -50.467 -55.556  0.00  0.00    +0.000 C 
ATOM     16  C   UNL     1     -70.133 -50.842 -56.214  0.00  0.00    +0.000 C 
ATOM     17  O   UNL     1     -70.131 -51.153 -57.407  0.00  0.00    +0.000 OA
ENDBRANCH   1  16
BRANCH   2  18
ATOM     18  S   UNL     1     -68.479 -48.145 -55.907  0.00  0.00    +0.000 S 
ATOM     19  O   UNL     1     -69.351 -47.566 -54.824  0.00  0.00    +0.000 OA
BRANCH  18  20
ATOM     20  C   UNL     1     -66.857 -47.312 -55.745  0.00  0.00    +0.000 C 
BRANCH  20  21
ATOM     21  C   UNL     1     -66.103 -47.284 -57.034  0.00  0.00    +0.000 A 
ATOM     22  C   UNL     1     -66.456 -47.791 -58.312  0.00  0.00    +0.000 A 
ATOM     23  C   UNL     1     -65.386 -47.482 -59.116  0.00  0.00    +0.000 A 
ATOM     24  C   UNL     1     -65.040 -47.750 -60.523  0.00  0.00    +0.000 C 
ATOM     25  O   UNL     1     -64.470 -46.791 -58.388  0.00  0.00    +0.000 OA
ATOM     26  N   UNL     1     -64.917 -46.657 -57.086  0.00  0.00    +0.000 NA
ENDBRANCH  20  21
ENDBRANCH  18  20
ENDBRANCH   2  18
TORSDOF 4
ENDMDL
MODEL 9
REMARK VINA RESULT:    -5.466      3.698      4.636
REMARK INTER + INTRA:          -7.825
REMARK INTER:                  -6.798
REMARK INTRA:                  -1.028
REMARK UNBOUND:                -1.082
REMARK  Name = 
REMARK  6 active torsions:
REMARK  status: ('A' for Active; 'I' for Inactive)
REMARK    1  A    between atoms: C_1  and  C_2
REMARK    2  A    between atoms: C_2  and  C_4
REMARK    3  A    between atoms: C_5  and  S_6
REMARK    4  A    between atoms: S_6  and  C_8
REMARK    5  A    between atoms: C_8  and  C_9
REMARK    6  A    between atoms: C_11  and  C_12
REMARK                            x       y       z     vdW  Elec       q    Type
REMARK                         _______ _______ _______ _____ _____    ______ ____
ROOT
ATOM      1  C   UNL     1     -57.929 -40.950 -59.777  0.00  0.00    +0.000 A 
ATOM      2  C   UNL     1     -57.542 -41.158 -61.055  0.00  0.00    +0.000 A 
ATOM      3  N   UNL     1     -56.568 -42.067 -61.418  0.00  0.00    +0.000 N 
ATOM      4  C   UNL     1     -55.781 -42.753 -60.479  0.00  0.00    +0.000 A 
ATOM      5  C   UNL     1     -54.767 -43.636 -60.898  0.00  0.00    +0.000 A 
ATOM      6 BR   UNL     1     -54.370 -43.862 -62.743  0.00  0.00    +0.000 Br
ATOM      7  C   UNL     1     -54.020 -44.361 -59.975  0.00  0.00    +0.000 A 
ATOM      8  C   UNL     1     -54.286 -44.222 -58.616  0.00  0.00    +0.000 A 
ATOM      9  C   UNL     1     -55.305 -43.368 -58.174  0.00  0.00    +0.000 A 
ATOM     10 CL   UNL     1     -55.507 -43.294 -56.458  0.00  0.00    +0.000 Cl
ATOM     11  C   UNL     1     -56.070 -42.642 -59.108  0.00  0.00    +0.000 A 
ATOM     12  C   UNL     1     -57.171 -41.716 -58.721  0.00  0.00    +0.000 A 
ATOM     13  O   UNL     1     -57.436 -41.541 -57.540  0.00  0.00    +0.000 OA
ATOM     14  H   UNL     1     -56.116 -41.888 -62.318  0.00  0.00    +0.000 HD
ENDROOT
BRANCH   1  16
ATOM     15  C   UNL     1     -60.447 -40.465 -59.318  0.00  0.00    +0.000 C 
ATOM     16  C   UNL     1     -59.013 -39.991 -59.354  0.00  0.00    +0.000 C 
ATOM     17  O   UNL     1     -58.760 -38.824 -59.049  0.00  0.00    +0.000 OA
ENDBRANCH   1  16
BRANCH   2  18
ATOM     18  S   UNL     1     -58.170 -40.121 -62.417  0.00  0.00    +0.000 S 
ATOM     19  O   UNL     1     -57.017 -40.082 -63.385  0.00  0.00    +0.000 OA
BRANCH  18  20
ATOM     20  C   UNL     1     -59.391 -41.278 -63.136  0.00  0.00    +0.000 C 
BRANCH  20  21
ATOM     21  C   UNL     1     -58.784 -42.178 -64.162  0.00  0.00    +0.000 A 
ATOM     22  C   UNL     1     -58.715 -42.040 -65.574  0.00  0.00    +0.000 A 
ATOM     23  C   UNL     1     -58.047 -43.162 -66.000  0.00  0.00    +0.000 A 
ATOM     24  C   UNL     1     -57.675 -43.705 -67.319  0.00  0.00    +0.000 C 
ATOM     25  O   UNL     1     -57.690 -43.902 -64.918  0.00  0.00    +0.000 OA
ATOM     26  N   UNL     1     -58.142 -43.288 -63.765  0.00  0.00    +0.000 NA
ENDBRANCH  20  21
ENDBRANCH  18  20
ENDBRANCH   2  18
TORSDOF 4
ENDMDL
MODEL 10
REMARK VINA RESULT:    -5.412     13.985     16.193
REMARK INTER + INTRA:          -7.760
REMARK INTER:                  -6.978
REMARK INTRA:                  -0.782
REMARK UNBOUND:                -1.082
REMARK  Name = 
REMARK  6 active torsions:
REMARK  status: ('A' for Active; 'I' for Inactive)
REMARK    1  A    between atoms: C_1  and  C_2
REMARK    2  A    between atoms: C_2  and  C_4
REMARK    3  A    between atoms: C_5  and  S_6
REMARK    4  A    between atoms: S_6  and  C_8
REMARK    5  A    between atoms: C_8  and  C_9
REMARK    6  A    between atoms: C_11  and  C_12
REMARK                            x       y       z     vdW  Elec       q    Type
REMARK                         _______ _______ _______ _____ _____    ______ ____
ROOT
ATOM      1  C   UNL     1     -53.917 -41.876 -79.736  0.00  0.00    +0.000 A 
ATOM      2  C   UNL     1     -54.822 -42.879 -79.700  0.00  0.00    +0.000 A 
ATOM      3  N   UNL     1     -55.034 -43.675 -78.592  0.00  0.00    +0.000 N 
ATOM      4  C   UNL     1     -54.224 -43.615 -77.447  0.00  0.00    +0.000 A 
ATOM      5  C   UNL     1     -54.450 -44.481 -76.360  0.00  0.00    +0.000 A 
ATOM      6 BR   UNL     1     -55.799 -45.817 -76.440  0.00  0.00    +0.000 Br
ATOM      7  C   UNL     1     -53.687 -44.390 -75.199  0.00  0.00    +0.000 A 
ATOM      8  C   UNL     1     -52.692 -43.422 -75.106  0.00  0.00    +0.000 A 
ATOM      9  C   UNL     1     -52.462 -42.534 -76.164  0.00  0.00    +0.000 A 
ATOM     10 CL   UNL     1     -51.187 -41.395 -75.903  0.00  0.00    +0.000 Cl
ATOM     11  C   UNL     1     -53.242 -42.616 -77.336  0.00  0.00    +0.000 A 
ATOM     12  C   UNL     1     -53.063 -41.708 -78.504  0.00  0.00    +0.000 A 
ATOM     13  O   UNL     1     -52.191 -40.851 -78.483  0.00  0.00    +0.000 OA
ATOM     14  H   UNL     1     -55.451 -44.589 -78.784  0.00  0.00    +0.000 HD
ENDROOT
BRANCH   1  16
ATOM     15  C   UNL     1     -54.327 -39.598 -80.933  0.00  0.00    +0.000 C 
ATOM     16  C   UNL     1     -53.688 -40.967 -80.917  0.00  0.00    +0.000 C 
ATOM     17  O   UNL     1     -53.003 -41.319 -81.880  0.00  0.00    +0.000 OA
ENDBRANCH   1  16
BRANCH   2  18
ATOM     18  S   UNL     1     -55.740 -43.380 -81.193  0.00  0.00    +0.000 S 
ATOM     19  O   UNL     1     -56.081 -44.822 -80.925  0.00  0.00    +0.000 OA
BRANCH  18  20
ATOM     20  C   UNL     1     -57.287 -42.440 -80.923  0.00  0.00    +0.000 C 
BRANCH  20  21
ATOM     21  C   UNL     1     -57.572 -41.485 -82.035  0.00  0.00    +0.000 A 
ATOM     22  C   UNL     1     -56.754 -41.073 -83.120  0.00  0.00    +0.000 A 
ATOM     23  C   UNL     1     -57.530 -40.185 -83.824  0.00  0.00    +0.000 A 
ATOM     24  C   UNL     1     -57.313 -39.337 -85.010  0.00  0.00    +0.000 C 
ATOM     25  O   UNL     1     -58.752 -40.103 -83.236  0.00  0.00    +0.000 OA
ATOM     26  N   UNL     1     -58.786 -40.920 -82.121  0.00  0.00    +0.000 NA
ENDBRANCH  20  21
ENDBRANCH  18  20
ENDBRANCH   2  18
TORSDOF 4
ENDMDL
MODEL 11
REMARK VINA RESULT:    -5.309     12.956     14.548
REMARK INTER + INTRA:          -7.633
REMARK INTER:                  -7.028
REMARK INTRA:                  -0.605
REMARK UNBOUND:                -1.082
REMARK  Name = 
REMARK  6 active torsions:
REMARK  status: ('A' for Active; 'I' for Inactive)
REMARK    1  A    between atoms: C_1  and  C_2
REMARK    2  A    between atoms: C_2  and  C_4
REMARK    3  A    between atoms: C_5  and  S_6
REMARK    4  A    between atoms: S_6  and  C_8
REMARK    5  A    between atoms: C_8  and  C_9
REMARK    6  A    between atoms: C_11  and  C_12
REMARK                            x       y       z     vdW  Elec       q    Type
REMARK                         _______ _______ _______ _____ _____    ______ ____
ROOT
ATOM      1  C   UNL     1     -55.379 -42.374 -77.599  0.00  0.00    +0.000 A 
ATOM      2  C   UNL     1     -56.403 -43.017 -78.201  0.00  0.00    +0.000 A 
ATOM      3  N   UNL     1     -56.709 -44.345 -77.972  0.00  0.00    +0.000 N 
ATOM      4  C   UNL     1     -55.893 -45.192 -77.206  0.00  0.00    +0.000 A 
ATOM      5  C   UNL     1     -56.222 -46.550 -77.040  0.00  0.00    +0.000 A 
ATOM      6 BR   UNL     1     -57.730 -47.305 -77.916  0.00  0.00    +0.000 Br
ATOM      7  C   UNL     1     -55.448 -47.383 -76.237  0.00  0.00    +0.000 A 
ATOM      8  C   UNL     1     -54.338 -46.864 -75.578  0.00  0.00    +0.000 A 
ATOM      9  C   UNL     1     -54.002 -45.510 -75.709  0.00  0.00    +0.000 A 
ATOM     10 CL   UNL     1     -52.591 -45.017 -74.838  0.00  0.00    +0.000 Cl
ATOM     11  C   UNL     1     -54.792 -44.663 -76.511  0.00  0.00    +0.000 A 
ATOM     12  C   UNL     1     -54.504 -43.213 -76.700  0.00  0.00    +0.000 A 
ATOM     13  O   UNL     1     -53.530 -42.708 -76.160  0.00  0.00    +0.000 OA
ATOM     14  H   UNL     1     -57.240 -44.806 -78.715  0.00  0.00    +0.000 HD
ENDROOT
BRANCH   1  16
ATOM     15  C   UNL     1     -53.988 -40.536 -78.814  0.00  0.00    +0.000 C 
ATOM     16  C   UNL     1     -55.042 -40.918 -77.801  0.00  0.00    +0.000 C 
ATOM     17  O   UNL     1     -55.595 -40.031 -77.149  0.00  0.00    +0.000 OA
ENDBRANCH   1  16
BRANCH   2  18
ATOM     18  S   UNL     1     -57.385 -42.218 -79.513  0.00  0.00    +0.000 S 
ATOM     19  O   UNL     1     -57.577 -43.318 -80.523  0.00  0.00    +0.000 OA
BRANCH  18  20
ATOM     20  C   UNL     1     -58.982 -42.057 -78.635  0.00  0.00    +0.000 C 
BRANCH  20  21
ATOM     21  C   UNL     1     -59.741 -40.841 -79.056  0.00  0.00    +0.000 A 
ATOM     22  C   UNL     1     -60.054 -39.662 -78.330  0.00  0.00    +0.000 A 
ATOM     23  C   UNL     1     -60.767 -38.889 -79.213  0.00  0.00    +0.000 A 
ATOM     24  C   UNL     1     -61.449 -37.585 -79.129  0.00  0.00    +0.000 C 
ATOM     25  O   UNL     1     -60.836 -39.532 -80.408  0.00  0.00    +0.000 OA
ATOM     26  N   UNL     1     -60.190 -40.751 -80.317  0.00  0.00    +0.000 NA
ENDBRANCH  20  21
ENDBRANCH  18  20
ENDBRANCH   2  18
TORSDOF 4
ENDMDL
MODEL 12
REMARK VINA RESULT:    -5.179      6.033      8.965
REMARK INTER + INTRA:          -7.472
REMARK INTER:                  -6.751
REMARK INTRA:                  -0.721
REMARK UNBOUND:                -1.082
REMARK  Name = 
REMARK  6 active torsions:
REMARK  status: ('A' for Active; 'I' for Inactive)
REMARK    1  A    between atoms: C_1  and  C_2
REMARK    2  A    between atoms: C_2  and  C_4
REMARK    3  A    between atoms: C_5  and  S_6
REMARK    4  A    between atoms: S_6  and  C_8
REMARK    5  A    between atoms: C_8  and  C_9
REMARK    6  A    between atoms: C_11  and  C_12
REMARK                            x       y       z     vdW  Elec       q    Type
REMARK                         _______ _______ _______ _____ _____    ______ ____
ROOT
ATOM      1  C   UNL     1     -56.841 -35.922 -62.673  0.00  0.00    +0.000 A 
ATOM      2  C   UNL     1     -57.349 -37.116 -62.297  0.00  0.00    +0.000 A 
ATOM      3  N   UNL     1     -58.687 -37.325 -62.027  0.00  0.00    +0.000 N 
ATOM      4  C   UNL     1     -59.624 -36.280 -61.973  0.00  0.00    +0.000 A 
ATOM      5  C   UNL     1     -60.969 -36.536 -61.649  0.00  0.00    +0.000 A 
ATOM      6 BR   UNL     1     -61.546 -38.287 -61.186  0.00  0.00    +0.000 Br
ATOM      7  C   UNL     1     -61.914 -35.514 -61.647  0.00  0.00    +0.000 A 
ATOM      8  C   UNL     1     -61.527 -34.221 -61.983  0.00  0.00    +0.000 A 
ATOM      9  C   UNL     1     -60.199 -33.943 -62.332  0.00  0.00    +0.000 A 
ATOM     10 CL   UNL     1     -59.871 -32.289 -62.715  0.00  0.00    +0.000 Cl
ATOM     11  C   UNL     1     -59.243 -34.980 -62.347  0.00  0.00    +0.000 A 
ATOM     12  C   UNL     1     -57.813 -34.769 -62.708  0.00  0.00    +0.000 A 
ATOM     13  O   UNL     1     -57.414 -33.649 -62.994  0.00  0.00    +0.000 OA
ATOM     14  H   UNL     1     -58.893 -38.126 -61.425  0.00  0.00    +0.000 HD
ENDROOT
BRANCH   1  16
ATOM     15  C   UNL     1     -54.440 -35.258 -61.910  0.00  0.00    +0.000 C 
ATOM     16  C   UNL     1     -55.393 -35.672 -63.008  0.00  0.00    +0.000 C 
ATOM     17  O   UNL     1     -54.967 -35.783 -64.159  0.00  0.00    +0.000 OA
ENDBRANCH   1  16
BRANCH   2  18
ATOM     18  S   UNL     1     -56.265 -38.540 -61.948  0.00  0.00    +0.000 S 
ATOM     19  O   UNL     1     -57.042 -39.329 -60.927  0.00  0.00    +0.000 OA
BRANCH  18  20
ATOM     20  C   UNL     1     -56.445 -39.447 -63.527  0.00  0.00    +0.000 C 
BRANCH  20  21
ATOM     21  C   UNL     1     -55.127 -39.857 -64.099  0.00  0.00    +0.000 A 
ATOM     22  C   UNL     1     -54.047 -39.064 -64.567  0.00  0.00    +0.000 A 
ATOM     23  C   UNL     1     -53.103 -39.972 -64.979  0.00  0.00    +0.000 A 
ATOM     24  C   UNL     1     -51.778 -39.868 -65.618  0.00  0.00    +0.000 C 
ATOM     25  O   UNL     1     -53.557 -41.228 -64.731  0.00  0.00    +0.000 OA
ATOM     26  N   UNL     1     -54.821 -41.162 -64.173  0.00  0.00    +0.000 NA
ENDBRANCH  20  21
ENDBRANCH  18  20
ENDBRANCH   2  18
TORSDOF 4
ENDMDL
MODEL 13
REMARK VINA RESULT:    -5.143      5.830      8.476
REMARK INTER + INTRA:          -7.428
REMARK INTER:                  -6.605
REMARK INTRA:                  -0.823
REMARK UNBOUND:                -1.082
REMARK  Name = 
REMARK  6 active torsions:
REMARK  status: ('A' for Active; 'I' for Inactive)
REMARK    1  A    between atoms: C_1  and  C_2
REMARK    2  A    between atoms: C_2  and  C_4
REMARK    3  A    between atoms: C_5  and  S_6
REMARK    4  A    between atoms: S_6  and  C_8
REMARK    5  A    between atoms: C_8  and  C_9
REMARK    6  A    between atoms: C_11  and  C_12
REMARK                            x       y       z     vdW  Elec       q    Type
REMARK                         _______ _______ _______ _____ _____    ______ ____
ROOT
ATOM      1  C   UNL     1     -56.723 -36.405 -62.674  0.00  0.00    +0.000 A 
ATOM      2  C   UNL     1     -57.445 -37.502 -62.361  0.00  0.00    +0.000 A 
ATOM      3  N   UNL     1     -58.807 -37.479 -62.132  0.00  0.00    +0.000 N 
ATOM      4  C   UNL     1     -59.545 -36.287 -62.056  0.00  0.00    +0.000 A 
ATOM      5  C   UNL     1     -60.924 -36.312 -61.774  0.00  0.00    +0.000 A 
ATOM      6 BR   UNL     1     -61.816 -37.948 -61.400  0.00  0.00    +0.000 Br
ATOM      7  C   UNL     1     -61.673 -35.139 -61.751  0.00  0.00    +0.000 A 
ATOM      8  C   UNL     1     -61.053 -33.923 -62.022  0.00  0.00    +0.000 A 
ATOM      9  C   UNL     1     -59.687 -33.874 -62.329  0.00  0.00    +0.000 A 
ATOM     10 CL   UNL     1     -59.060 -32.291 -62.632  0.00  0.00    +0.000 Cl
ATOM     11  C   UNL     1     -58.929 -35.062 -62.365  0.00  0.00    +0.000 A 
ATOM     12  C   UNL     1     -57.474 -35.096 -62.684  0.00  0.00    +0.000 A 
ATOM     13  O   UNL     1     -56.874 -34.055 -62.912  0.00  0.00    +0.000 OA
ATOM     14  H   UNL     1     -59.170 -38.253 -61.570  0.00  0.00    +0.000 HD
ENDROOT
BRANCH   1  16
ATOM     15  C   UNL     1     -54.767 -36.609 -64.383  0.00  0.00    +0.000 C 
ATOM     16  C   UNL     1     -55.244 -36.404 -62.964  0.00  0.00    +0.000 C 
ATOM     17  O   UNL     1     -54.410 -36.255 -62.068  0.00  0.00    +0.000 OA
ENDBRANCH   1  16
BRANCH   2  18
ATOM     18  S   UNL     1     -56.641 -39.109 -62.048  0.00  0.00    +0.000 S 
ATOM     19  O   UNL     1     -56.465 -39.125 -60.552  0.00  0.00    +0.000 OA
BRANCH  18  20
ATOM     20  C   UNL     1     -58.050 -40.222 -62.400  0.00  0.00    +0.000 C 
BRANCH  20  21
ATOM     21  C   UNL     1     -57.970 -40.826 -63.764  0.00  0.00    +0.000 A 
ATOM     22  C   UNL     1     -57.036 -40.601 -64.810  0.00  0.00    +0.000 A 
ATOM     23  C   UNL     1     -57.450 -41.424 -65.828  0.00  0.00    +0.000 A 
ATOM     24  C   UNL     1     -56.999 -41.666 -67.211  0.00  0.00    +0.000 C 
ATOM     25  O   UNL     1     -58.529 -42.138 -65.410  0.00  0.00    +0.000 OA
ATOM     26  N   UNL     1     -58.853 -41.772 -64.117  0.00  0.00    +0.000 NA
ENDBRANCH  20  21
ENDBRANCH  18  20
ENDBRANCH   2  18
TORSDOF 4
ENDMDL
MODEL 14
REMARK VINA RESULT:    -5.063     12.833     14.161
REMARK INTER + INTRA:          -7.328
REMARK INTER:                  -6.565
REMARK INTRA:                  -0.763
REMARK UNBOUND:                -1.082
REMARK  Name = 
REMARK  6 active torsions:
REMARK  status: ('A' for Active; 'I' for Inactive)
REMARK    1  A    between atoms: C_1  and  C_2
REMARK    2  A    between atoms: C_2  and  C_4
REMARK    3  A    between atoms: C_5  and  S_6
REMARK    4  A    between atoms: S_6  and  C_8
REMARK    5  A    between atoms: C_8  and  C_9
REMARK    6  A    between atoms: C_11  and  C_12
REMARK                            x       y       z     vdW  Elec       q    Type
REMARK                         _______ _______ _______ _____ _____    ______ ____
ROOT
ATOM      1  C   UNL     1     -54.816 -42.626 -77.438  0.00  0.00    +0.000 A 
ATOM      2  C   UNL     1     -55.867 -43.208 -78.055  0.00  0.00    +0.000 A 
ATOM      3  N   UNL     1     -56.267 -44.509 -77.818  0.00  0.00    +0.000 N 
ATOM      4  C   UNL     1     -55.527 -45.398 -77.023  0.00  0.00    +0.000 A 
ATOM      5  C   UNL     1     -55.950 -46.729 -76.848  0.00  0.00    +0.000 A 
ATOM      6 BR   UNL     1     -57.486 -47.392 -77.750  0.00  0.00    +0.000 Br
ATOM      7  C   UNL     1     -55.252 -47.601 -76.017  0.00  0.00    +0.000 A 
ATOM      8  C   UNL     1     -54.124 -47.148 -75.339  0.00  0.00    +0.000 A 
ATOM      9  C   UNL     1     -53.695 -45.822 -75.478  0.00  0.00    +0.000 A 
ATOM     10 CL   UNL     1     -52.274 -45.412 -74.582  0.00  0.00    +0.000 Cl
ATOM     11  C   UNL     1     -54.408 -44.934 -76.309  0.00  0.00    +0.000 A 
ATOM     12  C   UNL     1     -54.020 -43.509 -76.509  0.00  0.00    +0.000 A 
ATOM     13  O   UNL     1     -53.027 -43.063 -75.952  0.00  0.00    +0.000 OA
ATOM     14  H   UNL     1     -56.811 -44.943 -78.567  0.00  0.00    +0.000 HD
ENDROOT
BRANCH   1  16
ATOM     15  C   UNL     1     -53.236 -40.908 -78.596  0.00  0.00    +0.000 C 
ATOM     16  C   UNL     1     -54.378 -41.199 -77.650  0.00  0.00    +0.000 C 
ATOM     17  O   UNL     1     -54.918 -40.263 -77.058  0.00  0.00    +0.000 OA
ENDBRANCH   1  16
BRANCH   2  18
ATOM     18  S   UNL     1     -56.764 -42.363 -79.399  0.00  0.00    +0.000 S 
ATOM     19  O   UNL     1     -55.777 -42.373 -80.537  0.00  0.00    +0.000 OA
BRANCH  18  20
ATOM     20  C   UNL     1     -57.999 -43.654 -79.794  0.00  0.00    +0.000 C 
BRANCH  20  21
ATOM     21  C   UNL     1     -59.262 -43.488 -79.015  0.00  0.00    +0.000 A 
ATOM     22  C   UNL     1     -59.867 -44.346 -78.059  0.00  0.00    +0.000 A 
ATOM     23  C   UNL     1     -61.008 -43.687 -77.673  0.00  0.00    +0.000 A 
ATOM     24  C   UNL     1     -62.131 -44.004 -76.772  0.00  0.00    +0.000 C 
ATOM     25  O   UNL     1     -61.065 -42.489 -78.311  0.00  0.00    +0.000 OA
ATOM     26  N   UNL     1     -59.971 -42.356 -79.147  0.00  0.00    +0.000 NA
ENDBRANCH  20  21
ENDBRANCH  18  20
ENDBRANCH   2  18
TORSDOF 4
ENDMDL
MODEL 15
REMARK VINA RESULT:    -5.039     16.865     19.322
REMARK INTER + INTRA:          -7.298
REMARK INTER:                  -6.289
REMARK INTRA:                  -1.009
REMARK UNBOUND:                -1.082
REMARK  Name = 
REMARK  6 active torsions:
REMARK  status: ('A' for Active; 'I' for Inactive)
REMARK    1  A    between atoms: C_1  and  C_2
REMARK    2  A    between atoms: C_2  and  C_4
REMARK    3  A    between atoms: C_5  and  S_6
REMARK    4  A    between atoms: S_6  and  C_8
REMARK    5  A    between atoms: C_8  and  C_9
REMARK    6  A    between atoms: C_11  and  C_12
REMARK                            x       y       z     vdW  Elec       q    Type
REMARK                         _______ _______ _______ _____ _____    ______ ____
ROOT
ATOM      1  C   UNL     1     -67.676 -49.480 -55.568  0.00  0.00    +0.000 A 
ATOM      2  C   UNL     1     -68.436 -50.592 -55.465  0.00  0.00    +0.000 A 
ATOM      3  N   UNL     1     -68.174 -51.614 -54.573  0.00  0.00    +0.000 N 
ATOM      4  C   UNL     1     -67.008 -51.662 -53.793  0.00  0.00    +0.000 A 
ATOM      5  C   UNL     1     -66.763 -52.748 -52.932  0.00  0.00    +0.000 A 
ATOM      6 BR   UNL     1     -67.956 -54.227 -52.861  0.00  0.00    +0.000 Br
ATOM      7  C   UNL     1     -65.637 -52.777 -52.115  0.00  0.00    +0.000 A 
ATOM      8  C   UNL     1     -64.743 -51.711 -52.140  0.00  0.00    +0.000 A 
ATOM      9  C   UNL     1     -64.976 -50.607 -52.971  0.00  0.00    +0.000 A 
ATOM     10 CL   UNL     1     -63.772 -49.368 -52.898  0.00  0.00    +0.000 Cl
ATOM     11  C   UNL     1     -66.123 -50.571 -53.790  0.00  0.00    +0.000 A 
ATOM     12  C   UNL     1     -66.443 -49.435 -54.699  0.00  0.00    +0.000 A 
ATOM     13  O   UNL     1     -65.684 -48.479 -54.775  0.00  0.00    +0.000 OA
ATOM     14  H   UNL     1     -68.570 -52.523 -54.821  0.00  0.00    +0.000 HD
ENDROOT
BRANCH   1  16
ATOM     15  C   UNL     1     -67.281 -48.301 -57.858  0.00  0.00    +0.000 C 
ATOM     16  C   UNL     1     -67.955 -48.333 -56.506  0.00  0.00    +0.000 C 
ATOM     17  O   UNL     1     -68.710 -47.411 -56.192  0.00  0.00    +0.000 OA
ENDBRANCH   1  16
BRANCH   2  18
ATOM     18  S   UNL     1     -69.800 -50.919 -56.629  0.00  0.00    +0.000 S 
ATOM     19  O   UNL     1     -69.725 -52.408 -56.844  0.00  0.00    +0.000 OA
BRANCH  18  20
ATOM     20  C   UNL     1     -71.221 -50.645 -55.509  0.00  0.00    +0.000 C 
BRANCH  20  21
ATOM     21  C   UNL     1     -71.677 -51.906 -54.851  0.00  0.00    +0.000 A 
ATOM     22  C   UNL     1     -72.689 -52.824 -55.237  0.00  0.00    +0.000 A 
ATOM     23  C   UNL     1     -72.670 -53.792 -54.262  0.00  0.00    +0.000 A 
ATOM     24  C   UNL     1     -73.472 -54.998 -53.987  0.00  0.00    +0.000 C 
ATOM     25  O   UNL     1     -71.680 -53.508 -53.376  0.00  0.00    +0.000 OA
ATOM     26  N   UNL     1     -71.051 -52.333 -53.744  0.00  0.00    +0.000 NA
ENDBRANCH  20  21
ENDBRANCH  18  20
ENDBRANCH   2  18
TORSDOF 4
ENDMDL
MODEL 16
REMARK VINA RESULT:    -5.031     12.530     14.994
REMARK INTER + INTRA:          -7.290
REMARK INTER:                  -6.382
REMARK INTRA:                  -0.908
REMARK UNBOUND:                -1.082
REMARK  Name = 
REMARK  6 active torsions:
REMARK  status: ('A' for Active; 'I' for Inactive)
REMARK    1  A    between atoms: C_1  and  C_2
REMARK    2  A    between atoms: C_2  and  C_4
REMARK    3  A    between atoms: C_5  and  S_6
REMARK    4  A    between atoms: S_6  and  C_8
REMARK    5  A    between atoms: C_8  and  C_9
REMARK    6  A    between atoms: C_11  and  C_12
REMARK                            x       y       z     vdW  Elec       q    Type
REMARK                         _______ _______ _______ _____ _____    ______ ____
ROOT
ATOM      1  C   UNL     1     -54.804 -41.670 -79.988  0.00  0.00    +0.000 A 
ATOM      2  C   UNL     1     -55.890 -42.214 -79.396  0.00  0.00    +0.000 A 
ATOM      3  N   UNL     1     -55.925 -42.594 -78.069  0.00  0.00    +0.000 N 
ATOM      4  C   UNL     1     -54.787 -42.590 -77.247  0.00  0.00    +0.000 A 
ATOM      5  C   UNL     1     -54.862 -43.030 -75.912  0.00  0.00    +0.000 A 
ATOM      6 BR   UNL     1     -56.482 -43.728 -75.204  0.00  0.00    +0.000 Br
ATOM      7  C   UNL     1     -53.752 -42.977 -75.075  0.00  0.00    +0.000 A 
ATOM      8  C   UNL     1     -52.550 -42.470 -75.560  0.00  0.00    +0.000 A 
ATOM      9  C   UNL     1     -52.455 -42.004 -76.877  0.00  0.00    +0.000 A 
ATOM     10 CL   UNL     1     -50.895 -41.413 -77.336  0.00  0.00    +0.000 Cl
ATOM     11  C   UNL     1     -53.582 -42.045 -77.723  0.00  0.00    +0.000 A 
ATOM     12  C   UNL     1     -53.564 -41.567 -79.134  0.00  0.00    +0.000 A 
ATOM     13  O   UNL     1     -52.530 -41.129 -79.618  0.00  0.00    +0.000 OA
ATOM     14  H   UNL     1     -56.630 -43.296 -77.833  0.00  0.00    +0.000 HD
ENDROOT
BRANCH   1  16
ATOM     15  C   UNL     1     -54.360 -42.201 -82.500  0.00  0.00    +0.000 C 
ATOM     16  C   UNL     1     -54.746 -41.213 -81.424  0.00  0.00    +0.000 C 
ATOM     17  O   UNL     1     -54.993 -40.048 -81.741  0.00  0.00    +0.000 OA
ENDBRANCH   1  16
BRANCH   2  18
ATOM     18  S   UNL     1     -57.375 -42.651 -80.359  0.00  0.00    +0.000 S 
ATOM     19  O   UNL     1     -57.707 -44.039 -79.877  0.00  0.00    +0.000 OA
BRANCH  18  20
ATOM     20  C   UNL     1     -58.588 -41.538 -79.560  0.00  0.00    +0.000 C 
BRANCH  20  21
ATOM     21  C   UNL     1     -59.429 -42.247 -78.550  0.00  0.00    +0.000 A 
ATOM     22  C   UNL     1     -60.639 -42.972 -78.714  0.00  0.00    +0.000 A 
ATOM     23  C   UNL     1     -60.960 -43.402 -77.450  0.00  0.00    +0.000 A 
ATOM     24  C   UNL     1     -62.092 -44.146 -76.867  0.00  0.00    +0.000 C 
ATOM     25  O   UNL     1     -59.986 -43.010 -76.588  0.00  0.00    +0.000 OA
ATOM     26  N   UNL     1     -59.022 -42.293 -77.272  0.00  0.00    +0.000 NA
ENDBRANCH  20  21
ENDBRANCH  18  20
ENDBRANCH   2  18
TORSDOF 4
ENDMDL
MODEL 17
REMARK VINA RESULT:    -5.020     19.938     23.414
REMARK INTER + INTRA:          -7.275
REMARK INTER:                  -6.371
REMARK INTRA:                  -0.904
REMARK UNBOUND:                -1.082
REMARK  Name = 
REMARK  6 active torsions:
REMARK  status: ('A' for Active; 'I' for Inactive)
REMARK    1  A    between atoms: C_1  and  C_2
REMARK    2  A    between atoms: C_2  and  C_4
REMARK    3  A    between atoms: C_5  and  S_6
REMARK    4  A    between atoms: S_6  and  C_8
REMARK    5  A    between atoms: C_8  and  C_9
REMARK    6  A    between atoms: C_11  and  C_12
REMARK                            x       y       z     vdW  Elec       q    Type
REMARK                         _______ _______ _______ _____ _____    ______ ____
ROOT
ATOM      1  C   UNL     1     -66.497 -36.668 -82.592  0.00  0.00    +0.000 A 
ATOM      2  C   UNL     1     -65.961 -37.676 -83.315  0.00  0.00    +0.000 A 
ATOM      3  N   UNL     1     -65.747 -37.607 -84.678  0.00  0.00    +0.000 N 
ATOM      4  C   UNL     1     -66.205 -36.539 -85.466  0.00  0.00    +0.000 A 
ATOM      5  C   UNL     1     -66.003 -36.536 -86.859  0.00  0.00    +0.000 A 
ATOM      6 BR   UNL     1     -65.186 -38.014 -87.732  0.00  0.00    +0.000 Br
ATOM      7  C   UNL     1     -66.405 -35.456 -87.640  0.00  0.00    +0.000 A 
ATOM      8  C   UNL     1     -67.004 -34.356 -87.034  0.00  0.00    +0.000 A 
ATOM      9  C   UNL     1     -67.195 -34.324 -85.647  0.00  0.00    +0.000 A 
ATOM     10 CL   UNL     1     -67.961 -32.896 -85.044  0.00  0.00    +0.000 Cl
ATOM     11  C   UNL     1     -66.778 -35.412 -84.853  0.00  0.00    +0.000 A 
ATOM     12  C   UNL     1     -66.943 -35.455 -83.372  0.00  0.00    +0.000 A 
ATOM     13  O   UNL     1     -67.480 -34.524 -82.790  0.00  0.00    +0.000 OA
ATOM     14  H   UNL     1     -65.687 -38.508 -85.157  0.00  0.00    +0.000 HD
ENDROOT
BRANCH   1  16
ATOM     15  C   UNL     1     -65.593 -36.261 -80.183  0.00  0.00    +0.000 C 
ATOM     16  C   UNL     1     -66.710 -36.700 -81.100  0.00  0.00    +0.000 C 
ATOM     17  O   UNL     1     -67.771 -37.089 -80.607  0.00  0.00    +0.000 OA
ENDBRANCH   1  16
BRANCH   2  18
ATOM     18  S   UNL     1     -65.621 -39.303 -82.565  0.00  0.00    +0.000 S 
ATOM     19  O   UNL     1     -66.303 -40.267 -83.500  0.00  0.00    +0.000 OA
BRANCH  18  20
ATOM     20  C   UNL     1     -63.832 -39.431 -82.929  0.00  0.00    +0.000 C 
BRANCH  20  21
ATOM     21  C   UNL     1     -62.992 -38.774 -81.882  0.00  0.00    +0.000 A 
ATOM     22  C   UNL     1     -62.729 -39.165 -80.543  0.00  0.00    +0.000 A 
ATOM     23  C   UNL     1     -61.896 -38.188 -80.054  0.00  0.00    +0.000 A 
ATOM     24  C   UNL     1     -61.280 -37.916 -78.742  0.00  0.00    +0.000 C 
ATOM     25  O   UNL     1     -61.631 -37.296 -81.043  0.00  0.00    +0.000 OA
ATOM     26  N   UNL     1     -62.308 -37.662 -82.192  0.00  0.00    +0.000 NA
ENDBRANCH  20  21
ENDBRANCH  18  20
ENDBRANCH   2  18
TORSDOF 4
ENDMDL
MODEL 18
REMARK VINA RESULT:    -4.887      5.440      7.984
REMARK INTER + INTRA:          -7.112
REMARK INTER:                  -6.334
REMARK INTRA:                  -0.778
REMARK UNBOUND:                -1.082
REMARK  Name = 
REMARK  6 active torsions:
REMARK  status: ('A' for Active; 'I' for Inactive)
REMARK    1  A    between atoms: C_1  and  C_2
REMARK    2  A    between atoms: C_2  and  C_4
REMARK    3  A    between atoms: C_5  and  S_6
REMARK    4  A    between atoms: S_6  and  C_8
REMARK    5  A    between atoms: C_8  and  C_9
REMARK    6  A    between atoms: C_11  and  C_12
REMARK                            x       y       z     vdW  Elec       q    Type
REMARK                         _______ _______ _______ _____ _____    ______ ____
ROOT
ATOM      1  C   UNL     1     -57.406 -37.367 -62.356  0.00  0.00    +0.000 A 
ATOM      2  C   UNL     1     -57.781 -38.665 -62.359  0.00  0.00    +0.000 A 
ATOM      3  N   UNL     1     -59.086 -39.082 -62.183  0.00  0.00    +0.000 N 
ATOM      4  C   UNL     1     -60.124 -38.204 -61.834  0.00  0.00    +0.000 A 
ATOM      5  C   UNL     1     -61.430 -38.683 -61.620  0.00  0.00    +0.000 A 
ATOM      6 BR   UNL     1     -61.815 -40.543 -61.706  0.00  0.00    +0.000 Br
ATOM      7  C   UNL     1     -62.476 -37.812 -61.328  0.00  0.00    +0.000 A 
ATOM      8  C   UNL     1     -62.231 -36.444 -61.259  0.00  0.00    +0.000 A 
ATOM      9  C   UNL     1     -60.945 -35.939 -61.491  0.00  0.00    +0.000 A 
ATOM     10 CL   UNL     1     -60.796 -34.221 -61.360  0.00  0.00    +0.000 Cl
ATOM     11  C   UNL     1     -59.887 -36.819 -61.799  0.00  0.00    +0.000 A 
ATOM     12  C   UNL     1     -58.493 -36.363 -62.062  0.00  0.00    +0.000 A 
ATOM     13  O   UNL     1     -58.217 -35.173 -61.996  0.00  0.00    +0.000 OA
ATOM     14  H   UNL     1     -59.197 -40.042 -61.849  0.00  0.00    +0.000 HD
ENDROOT
BRANCH   1  16
ATOM     15  C   UNL     1     -55.541 -36.554 -63.984  0.00  0.00    +0.000 C 
ATOM     16  C   UNL     1     -55.997 -36.880 -62.581  0.00  0.00    +0.000 C 
ATOM     17  O   UNL     1     -55.201 -36.753 -61.648  0.00  0.00    +0.000 OA
ENDBRANCH   1  16
BRANCH   2  18
ATOM     18  S   UNL     1     -56.549 -40.007 -62.433  0.00  0.00    +0.000 S 
ATOM     19  O   UNL     1     -56.265 -40.301 -60.984  0.00  0.00    +0.000 OA
BRANCH  18  20
ATOM     20  C   UNL     1     -57.624 -41.367 -63.020  0.00  0.00    +0.000 C 
BRANCH  20  21
ATOM     21  C   UNL     1     -57.388 -41.697 -64.457  0.00  0.00    +0.000 A 
ATOM     22  C   UNL     1     -57.685 -42.880 -65.185  0.00  0.00    +0.000 A 
ATOM     23  C   UNL     1     -57.248 -42.621 -66.461  0.00  0.00    +0.000 A 
ATOM     24  C   UNL     1     -57.182 -43.403 -67.709  0.00  0.00    +0.000 C 
ATOM     25  O   UNL     1     -56.768 -41.351 -66.516  0.00  0.00    +0.000 OA
ATOM     26  N   UNL     1     -56.860 -40.766 -65.267  0.00  0.00    +0.000 NA
ENDBRANCH  20  21
ENDBRANCH  18  20
ENDBRANCH   2  18
TORSDOF 4
ENDMDL
MODEL 19
REMARK VINA RESULT:    -4.839     19.191     21.091
REMARK INTER + INTRA:          -7.052
REMARK INTER:                  -6.175
REMARK INTRA:                  -0.877
REMARK UNBOUND:                -1.082
REMARK  Name = 
REMARK  6 active torsions:
REMARK  status: ('A' for Active; 'I' for Inactive)
REMARK    1  A    between atoms: C_1  and  C_2
REMARK    2  A    between atoms: C_2  and  C_4
REMARK    3  A    between atoms: C_5  and  S_6
REMARK    4  A    between atoms: S_6  and  C_8
REMARK    5  A    between atoms: C_8  and  C_9
REMARK    6  A    between atoms: C_11  and  C_12
REMARK                            x       y       z     vdW  Elec       q    Type
REMARK                         _______ _______ _______ _____ _____    ______ ____
ROOT
ATOM      1  C   UNL     1     -50.994 -43.672 -84.957  0.00  0.00    +0.000 A 
ATOM      2  C   UNL     1     -51.536 -44.837 -84.540  0.00  0.00    +0.000 A 
ATOM      3  N   UNL     1     -50.885 -46.052 -84.620  0.00  0.00    +0.000 N 
ATOM      4  C   UNL     1     -49.657 -46.215 -85.280  0.00  0.00    +0.000 A 
ATOM      5  C   UNL     1     -49.054 -47.483 -85.376  0.00  0.00    +0.000 A 
ATOM      6 BR   UNL     1     -49.921 -49.031 -84.695  0.00  0.00    +0.000 Br
ATOM      7  C   UNL     1     -47.811 -47.643 -85.981  0.00  0.00    +0.000 A 
ATOM      8  C   UNL     1     -47.146 -46.531 -86.489  0.00  0.00    +0.000 A 
ATOM      9  C   UNL     1     -47.714 -45.254 -86.386  0.00  0.00    +0.000 A 
ATOM     10 CL   UNL     1     -46.774 -43.976 -87.073  0.00  0.00    +0.000 Cl
ATOM     11  C   UNL     1     -48.967 -45.089 -85.763  0.00  0.00    +0.000 A 
ATOM     12  C   UNL     1     -49.637 -43.767 -85.611  0.00  0.00    +0.000 A 
ATOM     13  O   UNL     1     -49.107 -42.759 -86.055  0.00  0.00    +0.000 OA
ATOM     14  H   UNL     1     -51.492 -46.875 -84.621  0.00  0.00    +0.000 HD
ENDROOT
BRANCH   1  16
ATOM     15  C   UNL     1     -51.238 -41.370 -83.761  0.00  0.00    +0.000 C 
ATOM     16  C   UNL     1     -51.665 -42.326 -84.851  0.00  0.00    +0.000 C 
ATOM     17  O   UNL     1     -52.565 -41.990 -85.623  0.00  0.00    +0.000 OA
ENDBRANCH   1  16
BRANCH   2  18
ATOM     18  S   UNL     1     -53.267 -44.929 -83.976  0.00  0.00    +0.000 S 
ATOM     19  O   UNL     1     -53.610 -46.387 -84.138  0.00  0.00    +0.000 OA
BRANCH  18  20
ATOM     20  C   UNL     1     -53.012 -44.670 -82.183  0.00  0.00    +0.000 C 
BRANCH  20  21
ATOM     21  C   UNL     1     -53.450 -43.313 -81.737  0.00  0.00    +0.000 A 
ATOM     22  C   UNL     1     -53.006 -42.521 -80.646  0.00  0.00    +0.000 A 
ATOM     23  C   UNL     1     -53.757 -41.374 -80.721  0.00  0.00    +0.000 A 
ATOM     24  C   UNL     1     -53.874 -40.158 -79.895  0.00  0.00    +0.000 C 
ATOM     25  O   UNL     1     -54.564 -41.443 -81.812  0.00  0.00    +0.000 OA
ATOM     26  N   UNL     1     -54.370 -42.651 -82.456  0.00  0.00    +0.000 NA
ENDBRANCH  20  21
ENDBRANCH  18  20
ENDBRANCH   2  18
TORSDOF 4
ENDMDL
MODEL 20
REMARK VINA RESULT:    -4.804     12.921     15.961
REMARK INTER + INTRA:          -7.009
REMARK INTER:                  -6.336
REMARK INTRA:                  -0.672
REMARK UNBOUND:                -1.082
REMARK  Name = 
REMARK  6 active torsions:
REMARK  status: ('A' for Active; 'I' for Inactive)
REMARK    1  A    between atoms: C_1  and  C_2
REMARK    2  A    between atoms: C_2  and  C_4
REMARK    3  A    between atoms: C_5  and  S_6
REMARK    4  A    between atoms: S_6  and  C_8
REMARK    5  A    between atoms: C_8  and  C_9
REMARK    6  A    between atoms: C_11  and  C_12
REMARK                            x       y       z     vdW  Elec       q    Type
REMARK                         _______ _______ _______ _____ _____    ______ ____
ROOT
ATOM      1  C   UNL     1     -64.928 -46.254 -57.473  0.00  0.00    +0.000 A 
ATOM      2  C   UNL     1     -65.612 -47.215 -56.813  0.00  0.00    +0.000 A 
ATOM      3  N   UNL     1     -66.869 -47.648 -57.185  0.00  0.00    +0.000 N 
ATOM      4  C   UNL     1     -67.620 -47.026 -58.195  0.00  0.00    +0.000 A 
ATOM      5  C   UNL     1     -68.917 -47.474 -58.507  0.00  0.00    +0.000 A 
ATOM      6 BR   UNL     1     -69.731 -48.876 -57.515  0.00  0.00    +0.000 Br
ATOM      7  C   UNL     1     -69.645 -46.898 -59.544  0.00  0.00    +0.000 A 
ATOM      8  C   UNL     1     -69.079 -45.870 -60.292  0.00  0.00    +0.000 A 
ATOM      9  C   UNL     1     -67.781 -45.421 -60.017  0.00  0.00    +0.000 A 
ATOM     10 CL   UNL     1     -67.221 -44.133 -61.025  0.00  0.00    +0.000 Cl
ATOM     11  C   UNL     1     -67.037 -46.012 -58.975  0.00  0.00    +0.000 A 
ATOM     12  C   UNL     1     -65.652 -45.595 -58.621  0.00  0.00    +0.000 A 
ATOM     13  O   UNL     1     -65.112 -44.684 -59.233  0.00  0.00    +0.000 OA
ATOM     14  H   UNL     1     -67.418 -48.087 -56.442  0.00  0.00    +0.000 HD
ENDROOT
BRANCH   1  16
ATOM     15  C   UNL     1     -62.349 -46.396 -57.811  0.00  0.00    +0.000 C 
ATOM     16  C   UNL     1     -63.541 -45.786 -57.112  0.00  0.00    +0.000 C 
ATOM     17  O   UNL     1     -63.354 -44.925 -56.250  0.00  0.00    +0.000 OA
ENDBRANCH   1  16
BRANCH   2  18
ATOM     18  S   UNL     1     -64.988 -47.918 -55.250  0.00  0.00    +0.000 S 
ATOM     19  O   UNL     1     -65.232 -46.818 -54.251  0.00  0.00    +0.000 OA
BRANCH  18  20
ATOM     20  C   UNL     1     -66.288 -49.170 -54.946  0.00  0.00    +0.000 C 
BRANCH  20  21
ATOM     21  C   UNL     1     -65.854 -50.214 -53.970  0.00  0.00    +0.000 A 
ATOM     22  C   UNL     1     -66.409 -51.489 -53.687  0.00  0.00    +0.000 A 
ATOM     23  C   UNL     1     -65.602 -52.009 -52.705  0.00  0.00    +0.000 A 
ATOM     24  C   UNL     1     -65.614 -53.248 -51.905  0.00  0.00    +0.000 C 
ATOM     25  O   UNL     1     -64.597 -51.132 -52.446  0.00  0.00    +0.000 OA
ATOM     26  N   UNL     1     -64.746 -50.010 -53.241  0.00  0.00    +0.000 NA
ENDBRANCH  20  21
ENDBRANCH  18  20
ENDBRANCH   2  18
TORSDOF 4
ENDMDL
