REMARK VINA RESULT:    -5.823      3.184      4.031
REMARK INTER + INTRA:          -8.149
REMARK INTER:                  -7.287
REMARK INTRA:                  -0.863
REMARK UNBOUND:                -0.965
REMARK  Name = 
REMARK  6 active torsions:
REMARK  status: ('A' for Active; 'I' for Inactive)
REMARK    1  A    between atoms: C_1  and  C_2
REMARK    2  A    between atoms: C_2  and  C_4
REMARK    3  A    between atoms: C_5  and  S_6
REMARK    4  A    between atoms: S_6  and  C_8
REMARK    5  A    between atoms: C_8  and  C_9
REMARK    6  A    between atoms: C_11  and  C_12
REMARK                            x       y       z     vdW  Elec       q    Type
REMARK                         _______ _______ _______ _____ _____    ______ ____
ROOT
ATOM      1  C   UNL     1     -56.211 -42.376 -63.062  0.00  0.00    +0.000 A 
ATOM      2  C   UNL     1     -56.938 -41.605 -62.219  0.00  0.00    +0.000 A 
ATOM      3  N   UNL     1     -56.779 -41.620 -60.850  0.00  0.00    +0.000 N 
ATOM      4  C   UNL     1     -55.941 -42.535 -60.190  0.00  0.00    +0.000 A 
ATOM      5  C   UNL     1     -55.819 -42.513 -58.786  0.00  0.00    +0.000 A 
ATOM      6 BR   UNL     1     -56.830 -41.295 -57.735  0.00  0.00    +0.000 Br
ATOM      7  C   UNL     1     -54.952 -43.383 -58.127  0.00  0.00    +0.000 A 
ATOM      8  C   UNL     1     -54.192 -44.283 -58.866  0.00  0.00    +0.000 A 
ATOM      9  C   UNL     1     -54.278 -44.308 -60.262  0.00  0.00    +0.000 A 
ATOM     10 CL   UNL     1     -53.281 -45.491 -61.036  0.00  0.00    +0.000 Cl
ATOM     11  C   UNL     1     -55.138 -43.415 -60.933  0.00  0.00    +0.000 A 
ATOM     12  C   UNL     1     -55.265 -43.356 -62.415  0.00  0.00    +0.000 A 
ATOM     13  O   UNL     1     -54.628 -44.137 -63.111  0.00  0.00    +0.000 OA
ATOM     14  H   UNL     1     -57.576 -41.283 -60.307  0.00  0.00    +0.000 HD
ENDROOT
BRANCH   1  16
ATOM     15  C   UNL     1     -55.455 -41.372 -65.340  0.00  0.00    +0.000 C 
ATOM     16  C   UNL     1     -56.317 -42.344 -64.563  0.00  0.00    +0.000 C 
ATOM     17  O   UNL     1     -57.099 -43.067 -65.174  0.00  0.00    +0.000 OA
ENDBRANCH   1  16
BRANCH   2  18
ATOM     18  S   UNL     1     -58.323 -40.578 -62.829  0.00  0.00    +0.000 S 
ATOM     19  O   UNL     1     -59.542 -41.309 -62.334  0.00  0.00    +0.000 OA
BRANCH  18  20
ATOM     20  C   UNL     1     -58.124 -39.129 -61.731  0.00  0.00    +0.000 C 
BRANCH  20  21
ATOM     21  C   UNL     1     -57.299 -38.055 -62.359  0.00  0.00    +0.000 A 
ATOM     22  C   UNL     1     -56.170 -38.170 -63.213  0.00  0.00    +0.000 A 
ATOM     23  C   UNL     1     -55.864 -36.877 -63.560  0.00  0.00    +0.000 A 
ATOM     24  C   UNL     1     -54.835 -36.249 -64.412  0.00  0.00    +0.000 C 
ATOM     25  O   UNL     1     -56.748 -36.036 -62.962  0.00  0.00    +0.000 OA
ATOM     26  N   UNL     1     -57.653 -36.769 -62.214  0.00  0.00    +0.000 NA
ENDBRANCH  20  21
ENDBRANCH  18  20
ENDBRANCH   2  18
TORSDOF 4
