=
 OpenBabel09162517233D

 28 31  0  0  1  0  0  0  0  0999 V2000
  -55.7410  -41.4200  -63.3160 C   0  0  2  0  0  3  0  0  0  0  0  0
  -54.4150  -41.0590  -63.6210 N   0  0  0  0  0  0  0  0  0  0  0  0
  -53.4070  -42.0530  -63.7570 C   0  0  0  0  0  0  0  0  0  0  0  0
  -52.1890  -41.8250  -64.4250 C   0  0  0  0  0  0  0  0  0  0  0  0
  -51.8730  -40.2060  -65.3600 Br  0  0  0  0  0  0  0  0  0  0  0  0
  -51.1780  -42.7970  -64.4410 C   0  0  0  0  0  3  0  0  0  0  0  0
  -51.3900  -44.0260  -63.8070 C   0  0  0  0  0  3  0  0  0  0  0  0
  -52.5900  -44.2760  -63.1410 C   0  0  0  0  0  0  0  0  0  0  0  0
  -52.7810  -45.8480  -62.4530 Cl  0  0  0  0  0  0  0  0  0  0  0  0
  -53.5790  -43.2820  -63.1010 C   0  0  0  0  0  0  0  0  0  0  0  0
  -54.8420  -43.4220  -62.3500 C   0  0  0  0  0  0  0  0  0  0  0  0
  -54.9150  -44.0950  -61.3300 O   0  0  0  0  0  0  0  0  0  0  0  0
  -56.0340  -42.6450  -62.8270 C   0  0  2  0  0  3  0  0  0  0  0  0
  -54.3660  -40.3190  -64.3350 H   0  0  0  0  0  0  0  0  0  0  0  0
  -56.9560  -40.2940  -64.0530 S   0  0  2  0  0  0  0  0  0  0  0  0
  -57.7700  -39.8120  -62.8830 O   0  0  0  0  0  0  0  0  0  0  0  0
  -58.0690  -41.2310  -65.1410 C   0  0  0  0  0  2  0  0  0  0  0  0
  -55.7160  -42.8820  -69.3780 C   0  0  0  0  0  1  0  0  0  0  0  0
  -56.5710  -42.4900  -68.2420 C   0  0  0  0  0  0  0  0  0  0  0  0
  -56.3440  -41.9080  -67.0170 C   0  0  0  0  0  3  0  0  0  0  0  0
  -57.6320  -41.7310  -66.4640 C   0  0  0  0  0  0  0  0  0  0  0  0
  -58.5700  -42.2430  -67.2810 N   0  0  0  0  0  0  0  0  0  0  0  0
  -57.9010  -42.7150  -68.3910 O   0  0  0  0  0  0  0  0  0  0  0  0
  -57.2990  -43.4330  -62.8340 C   0  0  0  0  0  0  0  0  0  0  0  0
  -57.5270  -44.2320  -63.7250 O   0  0  0  0  0  0  0  0  0  0  0  0
  -58.2480  -43.2640  -61.7170 C   0  0  0  0  0  3  0  0  0  0  0  0
  -59.5680  -43.9900  -61.7500 C   0  0  0  0  0  2  0  0  0  0  0  0
  -59.5380  -42.4990  -61.8950 C   0  0  0  0  0  2  0  0  0  0  0  0
  1 15  1  6  0  0  0
  1 13  1  0  0  0  0
  2  1  1  0  0  0  0
  3  2  1  0  0  0  0
  3 10  1  0  0  0  0
  4  3  2  0  0  0  0
  5  4  1  0  0  0  0
  6  4  1  0  0  0  0
  6  7  2  0  0  0  0
  7  8  1  0  0  0  0
  8 10  2  0  0  0  0
  8  9  1  0  0  0  0
 10 11  1  0  0  0  0
 11 12  2  0  0  0  0
 13 24  1  6  0  0  0
 13 11  1  0  0  0  0
 14  2  1  0  0  0  0
 15 16  2  1  0  0  0
 17 15  1  0  0  0  0
 18 19  1  0  0  0  0
 19 20  2  0  0  0  0
 20 21  1  0  0  0  0
 21 17  1  0  0  0  0
 22 21  2  0  0  0  0
 23 19  1  0  0  0  0
 23 22  1  0  0  0  0
 24 26  1  0  0  0  0
 25 24  2  0  0  0  0
 27 26  1  0  0  0  0
 28 27  1  0  0  0  0
 28 26  1  0  0  0  0
M  END
>  <MODEL>
1

>  <REMARK>
 VINA RESULT:    -7.693      0.000      0.000
 INTER + INTRA:         -10.852
 INTER:                  -9.942
 INTRA:                  -0.910
 UNBOUND:                -0.910
  Name = 
  6 active torsions:
  status: ('A' for Active; 'I' for Inactive)
    1  A    between atoms: C_1  and  C_2
    2  A    between atoms: C_4  and  C_5
    3  A    between atoms: C_5  and  S_6
    4  A    between atoms: S_6  and  C_8
    5  A    between atoms: C_20  and  C_21
    6  A    between atoms: C_21  and  C_23
                            x       y       z     vdW  Elec       q    Type
                         _______ _______ _______ _____ _____    ______ ____

>  <TORSDO>
F 5

$$$$
