REMARK VINA RESULT:    -5.304     11.992     12.987
REMARK INTER + INTRA:          -7.400
REMARK INTER:                  -6.614
REMARK INTRA:                  -0.787
REMARK UNBOUND:                -0.856
REMARK  Name = 
REMARK  6 active torsions:
REMARK  status: ('A' for Active; 'I' for Inactive)
REMARK    1  A    between atoms: C_1  and  C_2
REMARK    2  A    between atoms: C_2  and  C_4
REMARK    3  A    between atoms: C_5  and  S_6
REMARK    4  A    between atoms: S_6  and  C_8
REMARK    5  A    between atoms: C_8  and  C_9
REMARK    6  A    between atoms: C_11  and  C_12
REMARK                            x       y       z     vdW  Elec       q    Type
REMARK                         _______ _______ _______ _____ _____    ______ ____
ROOT
ATOM      1  C   UNL     1     -66.627 -42.893 -70.346  0.00  0.00    +0.000 A 
ATOM      2  C   UNL     1     -65.350 -42.631 -69.988  0.00  0.00    +0.000 A 
ATOM      3  N   UNL     1     -64.288 -42.755 -70.861  0.00  0.00    +0.000 N 
ATOM      4  C   UNL     1     -64.422 -43.264 -72.164  0.00  0.00    +0.000 A 
ATOM      5  C   UNL     1     -63.317 -43.338 -73.028  0.00  0.00    +0.000 A 
ATOM      6 BR   UNL     1     -61.584 -42.819 -72.442  0.00  0.00    +0.000 Br
ATOM      7  C   UNL     1     -63.459 -43.787 -74.342  0.00  0.00    +0.000 A 
ATOM      8  C   UNL     1     -64.710 -44.172 -74.807  0.00  0.00    +0.000 A 
ATOM      9  C   UNL     1     -65.829 -44.100 -73.972  0.00  0.00    +0.000 A 
ATOM     10 CL   UNL     1     -67.309 -44.643 -74.683  0.00  0.00    +0.000 Cl
ATOM     11  C   UNL     1     -65.690 -43.614 -72.655  0.00  0.00    +0.000 A 
ATOM     12  C   UNL     1     -66.840 -43.424 -71.741  0.00  0.00    +0.000 A 
ATOM     13  O   UNL     1     -67.968 -43.705 -72.122  0.00  0.00    +0.000 OA
ATOM     14  H   UNL     1     -63.351 -42.748 -70.465  0.00  0.00    +0.000 HD
ENDROOT
BRANCH   1  16
ATOM     15  C   UNL     1     -68.328 -43.827 -68.618  0.00  0.00    +0.000 C 
ATOM     16  C   UNL     1     -67.837 -42.685 -69.474  0.00  0.00    +0.000 C 
ATOM     17  O   UNL     1     -68.447 -41.624 -69.471  0.00  0.00    +0.000 OA
ENDBRANCH   1  16
BRANCH   2  18
ATOM     18  S   UNL     1     -64.919 -42.199 -68.259  0.00  0.00    +0.000 S 
ATOM     19  O   UNL     1     -64.197 -43.418 -67.752  0.00  0.00    +0.000 OA
BRANCH  18  20
ATOM     20  C   UNL     1     -63.623 -40.943 -68.562  0.00  0.00    +0.000 C 
BRANCH  20  21
ATOM     21  C   UNL     1     -62.302 -41.350 -67.998  0.00  0.00    +0.000 A 
ATOM     22  C   UNL     1     -61.238 -42.045 -68.630  0.00  0.00    +0.000 A 
ATOM     23  C   UNL     1     -60.238 -42.088 -67.685  0.00  0.00    +0.000 A 
ATOM     24  C   UNL     1     -58.871 -42.644 -67.645  0.00  0.00    +0.000 C 
ATOM     25  O   UNL     1     -60.669 -41.455 -66.560  0.00  0.00    +0.000 OA
ATOM     26  N   UNL     1     -61.957 -40.983 -66.757  0.00  0.00    +0.000 NA
ENDBRANCH  20  21
ENDBRANCH  18  20
ENDBRANCH   2  18
TORSDOF 4
