REMARK  Name = 
REMARK  6 active torsions:
REMARK  status: ('A' for Active; 'I' for Inactive)
REMARK    1  A    between atoms: C_1  and  C_2
REMARK    2  A    between atoms: C_2  and  C_4
REMARK    3  A    between atoms: C_5  and  S_6
REMARK    4  A    between atoms: S_6  and  C_8
REMARK    5  A    between atoms: C_8  and  C_9
REMARK    6  A    between atoms: C_11  and  C_12
REMARK                            x       y       z     vdW  Elec       q    Type
REMARK                         _______ _______ _______ _____ _____    ______ ____
ROOT
ATOM      1  C   UNL     1       3.148   0.851  -0.828  0.00  0.00    +0.000 A 
ATOM      2  C   UNL     1       2.887   2.170  -0.981  0.00  0.00    +0.000 A 
ATOM      3  N   UNL     1       3.587   2.991  -1.849  0.00  0.00    +0.000 N 
ATOM      4  C   UNL     1       4.817   2.587  -2.403  0.00  0.00    +0.000 A 
ATOM      5  C   UNL     1       5.652   3.504  -3.062  0.00  0.00    +0.000 A 
ATOM      6 BR   UNL     1       5.180   5.339  -3.188  0.00  0.00    +0.000 Br
ATOM      7  C   UNL     1       6.857   3.092  -3.626  0.00  0.00    +0.000 A 
ATOM      8  C   UNL     1       7.237   1.752  -3.539  0.00  0.00    +0.000 A 
ATOM      9  C   UNL     1       6.401   0.813  -2.915  0.00  0.00    +0.000 A 
ATOM     10 CL   UNL     1       7.008  -0.797  -2.809  0.00  0.00    +0.000 Cl
ATOM     11  C   UNL     1       5.175   1.229  -2.374  0.00  0.00    +0.000 A 
ATOM     12  C   UNL     1       4.184   0.300  -1.764  0.00  0.00    +0.000 A 
ATOM     13  O   UNL     1       4.181  -0.893  -2.048  0.00  0.00    +0.000 OA
ATOM     14  H   UNL     1       3.554   3.983  -1.597  0.00  0.00    +0.000 HD
ENDROOT
BRANCH   1  16
ATOM     15  C   UNL     1       3.197  -1.324   0.601  0.00  0.00    +0.000 C 
ATOM     16  C   UNL     1       2.487  -0.058   0.162  0.00  0.00    +0.000 C 
ATOM     17  O   UNL     1       1.381   0.212   0.630  0.00  0.00    +0.000 OA
ENDBRANCH   1  16
BRANCH   2  18
ATOM     18  S   UNL     1       1.674   3.037   0.070  0.00  0.00    +0.000 S 
ATOM     19  O   UNL     1       2.473   4.173   0.651  0.00  0.00    +0.000 OA
BRANCH  18  20
ATOM     20  C   UNL     1       0.662   3.759  -1.277  0.00  0.00    +0.000 C 
BRANCH  20  21
ATOM     21  C   UNL     1      -0.466   4.619  -0.809  0.00  0.00    +0.000 A 
ATOM     22  C   UNL     1      -0.572   5.489   0.307  0.00  0.00    +0.000 A 
ATOM     23  C   UNL     1      -1.804   6.081   0.175  0.00  0.00    +0.000 A 
ATOM     24  C   UNL     1      -2.573   7.075   0.947  0.00  0.00    +0.000 C 
ATOM     25  O   UNL     1      -2.400   5.612  -0.953  0.00  0.00    +0.000 OA
ATOM     26  N   UNL     1      -1.567   4.705  -1.574  0.00  0.00    +0.000 NA
ENDBRANCH  20  21
ENDBRANCH  18  20
ENDBRANCH   2  18
TORSDOF 4
