MODEL 1
REMARK VINA RESULT:    -6.518      0.000      0.000
REMARK INTER + INTRA:          -8.722
REMARK INTER:                  -8.042
REMARK INTRA:                  -0.681
REMARK UNBOUND:                -0.681
REMARK  Name = 
REMARK  6 active torsions:
REMARK  status: ('A' for Active; 'I' for Inactive)
REMARK    1  A    between atoms: C_1  and  C_2
REMARK    2  A    between atoms: C_2  and  C_4
REMARK    3  A    between atoms: C_5  and  S_6
REMARK    4  A    between atoms: S_6  and  C_8
REMARK    5  A    between atoms: C_8  and  C_9
REMARK    6  A    between atoms: C_11  and  C_12
REMARK                            x       y       z     vdW  Elec       q    Type
REMARK                         _______ _______ _______ _____ _____    ______ ____
ROOT
ATOM      1  C   UNL     1     -55.944 -41.156 -63.819  0.00  0.00    +0.000 A 
ATOM      2  C   UNL     1     -54.822 -40.418 -63.965  0.00  0.00    +0.000 A 
ATOM      3  N   UNL     1     -54.708 -39.112 -63.531  0.00  0.00    +0.000 N 
ATOM      4  C   UNL     1     -55.795 -38.382 -63.020  0.00  0.00    +0.000 A 
ATOM      5  C   UNL     1     -55.636 -37.047 -62.606  0.00  0.00    +0.000 A 
ATOM      6 BR   UNL     1     -53.963 -36.161 -62.780  0.00  0.00    +0.000 Br
ATOM      7  C   UNL     1     -56.696 -36.335 -62.050  0.00  0.00    +0.000 A 
ATOM      8  C   UNL     1     -57.933 -36.953 -61.899  0.00  0.00    +0.000 A 
ATOM      9  C   UNL     1     -58.114 -38.288 -62.282  0.00  0.00    +0.000 A 
ATOM     10 CL   UNL     1     -59.709 -38.912 -62.042  0.00  0.00    +0.000 Cl
ATOM     11  C   UNL     1     -57.034 -39.016 -62.823  0.00  0.00    +0.000 A 
ATOM     12  C   UNL     1     -57.136 -40.443 -63.237  0.00  0.00    +0.000 A 
ATOM     13  O   UNL     1     -58.209 -41.031 -63.146  0.00  0.00    +0.000 OA
ATOM     14  H   UNL     1     -53.984 -38.557 -63.988  0.00  0.00    +0.000 HD
ENDROOT
BRANCH   1  16
ATOM     15  C   UNL     1     -55.746 -43.685 -63.235  0.00  0.00    +0.000 C 
ATOM     16  C   UNL     1     -56.080 -42.597 -64.234  0.00  0.00    +0.000 C 
ATOM     17  O   UNL     1     -56.443 -42.915 -65.367  0.00  0.00    +0.000 OA
ENDBRANCH   1  16
BRANCH   2  18
ATOM     18  S   UNL     1     -53.395 -41.036 -64.922  0.00  0.00    +0.000 S 
ATOM     19  O   UNL     1     -52.765 -39.779 -65.458  0.00  0.00    +0.000 OA
BRANCH  18  20
ATOM     20  C   UNL     1     -52.323 -41.584 -63.545  0.00  0.00    +0.000 C 
BRANCH  20  21
ATOM     21  C   UNL     1     -51.616 -42.854 -63.883  0.00  0.00    +0.000 A 
ATOM     22  C   UNL     1     -50.368 -43.040 -64.534  0.00  0.00    +0.000 A 
ATOM     23  C   UNL     1     -50.186 -44.401 -64.551  0.00  0.00    +0.000 A 
ATOM     24  C   UNL     1     -49.137 -45.300 -65.071  0.00  0.00    +0.000 C 
ATOM     25  O   UNL     1     -51.242 -44.998 -63.938  0.00  0.00    +0.000 OA
ATOM     26  N   UNL     1     -52.137 -44.033 -63.510  0.00  0.00    +0.000 NA
ENDBRANCH  20  21
ENDBRANCH  18  20
ENDBRANCH   2  18
TORSDOF 4
ENDMDL
MODEL 2
REMARK VINA RESULT:    -6.427     13.110     14.454
REMARK INTER + INTRA:          -8.611
REMARK INTER:                  -7.937
REMARK INTRA:                  -0.673
REMARK UNBOUND:                -0.681
REMARK  Name = 
REMARK  6 active torsions:
REMARK  status: ('A' for Active; 'I' for Inactive)
REMARK    1  A    between atoms: C_1  and  C_2
REMARK    2  A    between atoms: C_2  and  C_4
REMARK    3  A    between atoms: C_5  and  S_6
REMARK    4  A    between atoms: S_6  and  C_8
REMARK    5  A    between atoms: C_8  and  C_9
REMARK    6  A    between atoms: C_11  and  C_12
REMARK                            x       y       z     vdW  Elec       q    Type
REMARK                         _______ _______ _______ _____ _____    ______ ____
ROOT
ATOM      1  C   UNL     1     -56.683 -42.841 -76.503  0.00  0.00    +0.000 A 
ATOM      2  C   UNL     1     -55.661 -43.714 -76.361  0.00  0.00    +0.000 A 
ATOM      3  N   UNL     1     -55.730 -45.036 -76.753  0.00  0.00    +0.000 N 
ATOM      4  C   UNL     1     -56.916 -45.634 -77.211  0.00  0.00    +0.000 A 
ATOM      5  C   UNL     1     -56.944 -46.990 -77.583  0.00  0.00    +0.000 A 
ATOM      6 BR   UNL     1     -55.394 -48.081 -77.422  0.00  0.00    +0.000 Br
ATOM      7  C   UNL     1     -58.103 -47.575 -78.087  0.00  0.00    +0.000 A 
ATOM      8  C   UNL     1     -59.254 -46.806 -78.227  0.00  0.00    +0.000 A 
ATOM      9  C   UNL     1     -59.249 -45.448 -77.886  0.00  0.00    +0.000 A 
ATOM     10 CL   UNL     1     -60.757 -44.629 -78.106  0.00  0.00    +0.000 Cl
ATOM     11  C   UNL     1     -58.069 -44.850 -77.398  0.00  0.00    +0.000 A 
ATOM     12  C   UNL     1     -57.973 -43.410 -77.029  0.00  0.00    +0.000 A 
ATOM     13  O   UNL     1     -58.964 -42.691 -77.114  0.00  0.00    +0.000 OA
ATOM     14  H   UNL     1     -55.070 -45.666 -76.296  0.00  0.00    +0.000 HD
ENDROOT
BRANCH   1  16
ATOM     15  C   UNL     1     -56.167 -40.379 -77.175  0.00  0.00    +0.000 C 
ATOM     16  C   UNL     1     -56.619 -41.382 -76.134  0.00  0.00    +0.000 C 
ATOM     17  O   UNL     1     -56.912 -40.985 -75.006  0.00  0.00    +0.000 OA
ENDBRANCH   1  16
BRANCH   2  18
ATOM     18  S   UNL     1     -54.138 -43.258 -75.462  0.00  0.00    +0.000 S 
ATOM     19  O   UNL     1     -53.494 -44.587 -75.172  0.00  0.00    +0.000 OA
BRANCH  18  20
ATOM     20  C   UNL     1     -53.182 -42.530 -76.841  0.00  0.00    +0.000 C 
BRANCH  20  21
ATOM     21  C   UNL     1     -52.060 -41.686 -76.334  0.00  0.00    +0.000 A 
ATOM     22  C   UNL     1     -51.795 -40.311 -76.568  0.00  0.00    +0.000 A 
ATOM     23  C   UNL     1     -50.665 -40.046 -75.833  0.00  0.00    +0.000 A 
ATOM     24  C   UNL     1     -49.826 -38.852 -75.616  0.00  0.00    +0.000 C 
ATOM     25  O   UNL     1     -50.281 -41.179 -75.186  0.00  0.00    +0.000 OA
ATOM     26  N   UNL     1     -51.157 -42.207 -75.490  0.00  0.00    +0.000 NA
ENDBRANCH  20  21
ENDBRANCH  18  20
ENDBRANCH   2  18
TORSDOF 4
ENDMDL
MODEL 3
REMARK VINA RESULT:    -6.416     14.382     15.636
REMARK INTER + INTRA:          -8.597
REMARK INTER:                  -7.696
REMARK INTRA:                  -0.901
REMARK UNBOUND:                -0.681
REMARK  Name = 
REMARK  6 active torsions:
REMARK  status: ('A' for Active; 'I' for Inactive)
REMARK    1  A    between atoms: C_1  and  C_2
REMARK    2  A    between atoms: C_2  and  C_4
REMARK    3  A    between atoms: C_5  and  S_6
REMARK    4  A    between atoms: S_6  and  C_8
REMARK    5  A    between atoms: C_8  and  C_9
REMARK    6  A    between atoms: C_11  and  C_12
REMARK                            x       y       z     vdW  Elec       q    Type
REMARK                         _______ _______ _______ _____ _____    ______ ____
ROOT
ATOM      1  C   UNL     1     -53.886 -42.752 -80.092  0.00  0.00    +0.000 A 
ATOM      2  C   UNL     1     -53.808 -41.963 -78.997  0.00  0.00    +0.000 A 
ATOM      3  N   UNL     1     -54.218 -42.361 -77.741  0.00  0.00    +0.000 N 
ATOM      4  C   UNL     1     -54.881 -43.578 -77.506  0.00  0.00    +0.000 A 
ATOM      5  C   UNL     1     -55.296 -43.936 -76.211  0.00  0.00    +0.000 A 
ATOM      6 BR   UNL     1     -55.032 -42.761 -74.739  0.00  0.00    +0.000 Br
ATOM      7  C   UNL     1     -55.907 -45.164 -75.964  0.00  0.00    +0.000 A 
ATOM      8  C   UNL     1     -56.109 -46.052 -77.014  0.00  0.00    +0.000 A 
ATOM      9  C   UNL     1     -55.686 -45.732 -78.310  0.00  0.00    +0.000 A 
ATOM     10 CL   UNL     1     -56.016 -46.935 -79.510  0.00  0.00    +0.000 Cl
ATOM     11  C   UNL     1     -55.046 -44.500 -78.556  0.00  0.00    +0.000 A 
ATOM     12  C   UNL     1     -54.549 -44.089 -79.899  0.00  0.00    +0.000 A 
ATOM     13  O   UNL     1     -54.720 -44.827 -80.865  0.00  0.00    +0.000 OA
ATOM     14  H   UNL     1     -54.442 -41.608 -77.090  0.00  0.00    +0.000 HD
ENDROOT
BRANCH   1  16
ATOM     15  C   UNL     1     -51.935 -42.546 -81.803  0.00  0.00    +0.000 C 
ATOM     16  C   UNL     1     -53.399 -42.364 -81.463  0.00  0.00    +0.000 C 
ATOM     17  O   UNL     1     -54.156 -41.889 -82.310  0.00  0.00    +0.000 OA
ENDBRANCH   1  16
BRANCH   2  18
ATOM     18  S   UNL     1     -53.313 -40.210 -79.123  0.00  0.00    +0.000 S 
ATOM     19  O   UNL     1     -54.464 -39.574 -79.855  0.00  0.00    +0.000 OA
BRANCH  18  20
ATOM     20  C   UNL     1     -53.503 -39.718 -77.371  0.00  0.00    +0.000 C 
BRANCH  20  21
ATOM     21  C   UNL     1     -52.180 -39.655 -76.681  0.00  0.00    +0.000 A 
ATOM     22  C   UNL     1     -51.432 -38.518 -76.278  0.00  0.00    +0.000 A 
ATOM     23  C   UNL     1     -50.320 -39.037 -75.661  0.00  0.00    +0.000 A 
ATOM     24  C   UNL     1     -49.122 -38.456 -75.024  0.00  0.00    +0.000 C 
ATOM     25  O   UNL     1     -50.396 -40.394 -75.676  0.00  0.00    +0.000 OA
ATOM     26  N   UNL     1     -51.565 -40.786 -76.307  0.00  0.00    +0.000 NA
ENDBRANCH  20  21
ENDBRANCH  18  20
ENDBRANCH   2  18
TORSDOF 4
ENDMDL
MODEL 4
REMARK VINA RESULT:    -6.369     13.536     14.602
REMARK INTER + INTRA:          -8.539
REMARK INTER:                  -8.023
REMARK INTRA:                  -0.515
REMARK UNBOUND:                -0.681
REMARK  Name = 
REMARK  6 active torsions:
REMARK  status: ('A' for Active; 'I' for Inactive)
REMARK    1  A    between atoms: C_1  and  C_2
REMARK    2  A    between atoms: C_2  and  C_4
REMARK    3  A    between atoms: C_5  and  S_6
REMARK    4  A    between atoms: S_6  and  C_8
REMARK    5  A    between atoms: C_8  and  C_9
REMARK    6  A    between atoms: C_11  and  C_12
REMARK                            x       y       z     vdW  Elec       q    Type
REMARK                         _______ _______ _______ _____ _____    ______ ____
ROOT
ATOM      1  C   UNL     1     -56.071 -42.056 -77.585  0.00  0.00    +0.000 A 
ATOM      2  C   UNL     1     -55.695 -43.188 -76.949  0.00  0.00    +0.000 A 
ATOM      3  N   UNL     1     -54.497 -43.320 -76.276  0.00  0.00    +0.000 N 
ATOM      4  C   UNL     1     -53.495 -42.335 -76.304  0.00  0.00    +0.000 A 
ATOM      5  C   UNL     1     -52.281 -42.521 -75.617  0.00  0.00    +0.000 A 
ATOM      6 BR   UNL     1     -51.927 -44.134 -74.675  0.00  0.00    +0.000 Br
ATOM      7  C   UNL     1     -51.305 -41.527 -75.598  0.00  0.00    +0.000 A 
ATOM      8  C   UNL     1     -51.533 -40.330 -76.268  0.00  0.00    +0.000 A 
ATOM      9  C   UNL     1     -52.741 -40.109 -76.942  0.00  0.00    +0.000 A 
ATOM     10 CL   UNL     1     -52.871 -38.577 -77.735  0.00  0.00    +0.000 Cl
ATOM     11  C   UNL     1     -53.738 -41.106 -76.942  0.00  0.00    +0.000 A 
ATOM     12  C   UNL     1     -55.056 -40.945 -77.617  0.00  0.00    +0.000 A 
ATOM     13  O   UNL     1     -55.302 -39.917 -78.240  0.00  0.00    +0.000 OA
ATOM     14  H   UNL     1     -54.167 -44.277 -76.146  0.00  0.00    +0.000 HD
ENDROOT
BRANCH   1  16
ATOM     15  C   UNL     1     -58.576 -41.357 -77.488  0.00  0.00    +0.000 C 
ATOM     16  C   UNL     1     -57.392 -41.866 -78.283  0.00  0.00    +0.000 C 
ATOM     17  O   UNL     1     -57.539 -42.125 -79.478  0.00  0.00    +0.000 OA
ENDBRANCH   1  16
BRANCH   2  18
ATOM     18  S   UNL     1     -56.676 -44.722 -77.078  0.00  0.00    +0.000 S 
ATOM     19  O   UNL     1     -56.428 -45.176 -78.492  0.00  0.00    +0.000 OA
BRANCH  18  20
ATOM     20  C   UNL     1     -55.665 -45.816 -76.017  0.00  0.00    +0.000 C 
BRANCH  20  21
ATOM     21  C   UNL     1     -55.794 -47.244 -76.434  0.00  0.00    +0.000 A 
ATOM     22  C   UNL     1     -56.894 -47.904 -77.043  0.00  0.00    +0.000 A 
ATOM     23  C   UNL     1     -56.458 -49.192 -77.240  0.00  0.00    +0.000 A 
ATOM     24  C   UNL     1     -57.061 -50.416 -77.801  0.00  0.00    +0.000 C 
ATOM     25  O   UNL     1     -55.177 -49.299 -76.797  0.00  0.00    +0.000 OA
ATOM     26  N   UNL     1     -54.754 -48.079 -76.300  0.00  0.00    +0.000 NA
ENDBRANCH  20  21
ENDBRANCH  18  20
ENDBRANCH   2  18
TORSDOF 4
ENDMDL
MODEL 5
REMARK VINA RESULT:    -6.308     13.478     14.823
REMARK INTER + INTRA:          -8.464
REMARK INTER:                  -7.660
REMARK INTRA:                  -0.804
REMARK UNBOUND:                -0.681
REMARK  Name = 
REMARK  6 active torsions:
REMARK  status: ('A' for Active; 'I' for Inactive)
REMARK    1  A    between atoms: C_1  and  C_2
REMARK    2  A    between atoms: C_2  and  C_4
REMARK    3  A    between atoms: C_5  and  S_6
REMARK    4  A    between atoms: S_6  and  C_8
REMARK    5  A    between atoms: C_8  and  C_9
REMARK    6  A    between atoms: C_11  and  C_12
REMARK                            x       y       z     vdW  Elec       q    Type
REMARK                         _______ _______ _______ _____ _____    ______ ____
ROOT
ATOM      1  C   UNL     1     -57.343 -43.807 -77.826  0.00  0.00    +0.000 A 
ATOM      2  C   UNL     1     -56.270 -43.268 -77.205  0.00  0.00    +0.000 A 
ATOM      3  N   UNL     1     -55.287 -44.022 -76.594  0.00  0.00    +0.000 N 
ATOM      4  C   UNL     1     -55.380 -45.416 -76.442  0.00  0.00    +0.000 A 
ATOM      5  C   UNL     1     -54.362 -46.141 -75.797  0.00  0.00    +0.000 A 
ATOM      6 BR   UNL     1     -52.852 -45.256 -75.053  0.00  0.00    +0.000 Br
ATOM      7  C   UNL     1     -54.423 -47.528 -75.690  0.00  0.00    +0.000 A 
ATOM      8  C   UNL     1     -55.508 -48.210 -76.230  0.00  0.00    +0.000 A 
ATOM      9  C   UNL     1     -56.526 -47.516 -76.897  0.00  0.00    +0.000 A 
ATOM     10 CL   UNL     1     -57.812 -48.502 -77.504  0.00  0.00    +0.000 Cl
ATOM     11  C   UNL     1     -56.452 -46.114 -77.027  0.00  0.00    +0.000 A 
ATOM     12  C   UNL     1     -57.480 -45.303 -77.736  0.00  0.00    +0.000 A 
ATOM     13  O   UNL     1     -58.469 -45.851 -78.213  0.00  0.00    +0.000 OA
ATOM     14  H   UNL     1     -54.741 -43.538 -75.881  0.00  0.00    +0.000 HD
ENDROOT
BRANCH   1  16
ATOM     15  C   UNL     1     -59.653 -42.607 -77.794  0.00  0.00    +0.000 C 
ATOM     16  C   UNL     1     -58.402 -43.014 -78.545  0.00  0.00    +0.000 C 
ATOM     17  O   UNL     1     -58.286 -42.699 -79.730  0.00  0.00    +0.000 OA
ENDBRANCH   1  16
BRANCH   2  18
ATOM     18  S   UNL     1     -56.118 -41.465 -76.962  0.00  0.00    +0.000 S 
ATOM     19  O   UNL     1     -55.537 -41.349 -75.578  0.00  0.00    +0.000 OA
BRANCH  18  20
ATOM     20  C   UNL     1     -54.739 -41.122 -78.114  0.00  0.00    +0.000 C 
BRANCH  20  21
ATOM     21  C   UNL     1     -53.482 -40.806 -77.373  0.00  0.00    +0.000 A 
ATOM     22  C   UNL     1     -52.497 -41.691 -76.860  0.00  0.00    +0.000 A 
ATOM     23  C   UNL     1     -51.546 -40.867 -76.308  0.00  0.00    +0.000 A 
ATOM     24  C   UNL     1     -50.272 -41.086 -75.596  0.00  0.00    +0.000 C 
ATOM     25  O   UNL     1     -51.921 -39.573 -76.489  0.00  0.00    +0.000 OA
ATOM     26  N   UNL     1     -53.129 -39.529 -77.163  0.00  0.00    +0.000 NA
ENDBRANCH  20  21
ENDBRANCH  18  20
ENDBRANCH   2  18
TORSDOF 4
ENDMDL
MODEL 6
REMARK VINA RESULT:    -6.253     13.560     14.743
REMARK INTER + INTRA:          -8.396
REMARK INTER:                  -7.500
REMARK INTRA:                  -0.896
REMARK UNBOUND:                -0.681
REMARK  Name = 
REMARK  6 active torsions:
REMARK  status: ('A' for Active; 'I' for Inactive)
REMARK    1  A    between atoms: C_1  and  C_2
REMARK    2  A    between atoms: C_2  and  C_4
REMARK    3  A    between atoms: C_5  and  S_6
REMARK    4  A    between atoms: S_6  and  C_8
REMARK    5  A    between atoms: C_8  and  C_9
REMARK    6  A    between atoms: C_11  and  C_12
REMARK                            x       y       z     vdW  Elec       q    Type
REMARK                         _______ _______ _______ _____ _____    ______ ____
ROOT
ATOM      1  C   UNL     1     -55.183 -43.114 -76.294  0.00  0.00    +0.000 A 
ATOM      2  C   UNL     1     -55.494 -41.946 -76.899  0.00  0.00    +0.000 A 
ATOM      3  N   UNL     1     -54.582 -40.929 -77.105  0.00  0.00    +0.000 N 
ATOM      4  C   UNL     1     -53.278 -40.959 -76.582  0.00  0.00    +0.000 A 
ATOM      5  C   UNL     1     -52.388 -39.892 -76.803  0.00  0.00    +0.000 A 
ATOM      6 BR   UNL     1     -52.935 -38.344 -77.762  0.00  0.00    +0.000 Br
ATOM      7  C   UNL     1     -51.078 -39.939 -76.333  0.00  0.00    +0.000 A 
ATOM      8  C   UNL     1     -50.640 -41.058 -75.634  0.00  0.00    +0.000 A 
ATOM      9  C   UNL     1     -51.497 -42.145 -75.419  0.00  0.00    +0.000 A 
ATOM     10 CL   UNL     1     -50.810 -43.458 -74.526  0.00  0.00    +0.000 Cl
ATOM     11  C   UNL     1     -52.816 -42.108 -75.916  0.00  0.00    +0.000 A 
ATOM     12  C   UNL     1     -53.785 -43.226 -75.748  0.00  0.00    +0.000 A 
ATOM     13  O   UNL     1     -53.458 -44.229 -75.121  0.00  0.00    +0.000 OA
ATOM     14  H   UNL     1     -54.981 -40.000 -77.236  0.00  0.00    +0.000 HD
ENDROOT
BRANCH   1  16
ATOM     15  C   UNL     1     -56.223 -45.336 -77.165  0.00  0.00    +0.000 C 
ATOM     16  C   UNL     1     -56.142 -44.260 -76.103  0.00  0.00    +0.000 C 
ATOM     17  O   UNL     1     -56.871 -44.338 -75.114  0.00  0.00    +0.000 OA
ENDBRANCH   1  16
BRANCH   2  18
ATOM     18  S   UNL     1     -57.216 -41.534 -77.343  0.00  0.00    +0.000 S 
ATOM     19  O   UNL     1     -57.202 -40.031 -77.434  0.00  0.00    +0.000 OA
BRANCH  18  20
ATOM     20  C   UNL     1     -57.234 -42.138 -79.070  0.00  0.00    +0.000 C 
BRANCH  20  21
ATOM     21  C   UNL     1     -55.892 -41.994 -79.707  0.00  0.00    +0.000 A 
ATOM     22  C   UNL     1     -54.949 -42.998 -80.049  0.00  0.00    +0.000 A 
ATOM     23  C   UNL     1     -53.913 -42.314 -80.638  0.00  0.00    +0.000 A 
ATOM     24  C   UNL     1     -52.610 -42.700 -81.213  0.00  0.00    +0.000 C 
ATOM     25  O   UNL     1     -54.216 -40.988 -80.664  0.00  0.00    +0.000 OA
ATOM     26  N   UNL     1     -55.458 -40.784 -80.090  0.00  0.00    +0.000 NA
ENDBRANCH  20  21
ENDBRANCH  18  20
ENDBRANCH   2  18
TORSDOF 4
ENDMDL
MODEL 7
REMARK VINA RESULT:    -6.076     13.961     15.070
REMARK INTER + INTRA:          -8.178
REMARK INTER:                  -7.642
REMARK INTRA:                  -0.536
REMARK UNBOUND:                -0.681
REMARK  Name = 
REMARK  6 active torsions:
REMARK  status: ('A' for Active; 'I' for Inactive)
REMARK    1  A    between atoms: C_1  and  C_2
REMARK    2  A    between atoms: C_2  and  C_4
REMARK    3  A    between atoms: C_5  and  S_6
REMARK    4  A    between atoms: S_6  and  C_8
REMARK    5  A    between atoms: C_8  and  C_9
REMARK    6  A    between atoms: C_11  and  C_12
REMARK                            x       y       z     vdW  Elec       q    Type
REMARK                         _______ _______ _______ _____ _____    ______ ____
ROOT
ATOM      1  C   UNL     1     -55.281 -42.765 -76.920  0.00  0.00    +0.000 A 
ATOM      2  C   UNL     1     -54.544 -42.034 -77.785  0.00  0.00    +0.000 A 
ATOM      3  N   UNL     1     -54.973 -41.694 -79.052  0.00  0.00    +0.000 N 
ATOM      4  C   UNL     1     -56.162 -42.190 -79.612  0.00  0.00    +0.000 A 
ATOM      5  C   UNL     1     -56.552 -41.830 -80.915  0.00  0.00    +0.000 A 
ATOM      6 BR   UNL     1     -55.455 -40.707 -81.989  0.00  0.00    +0.000 Br
ATOM      7  C   UNL     1     -57.755 -42.277 -81.456  0.00  0.00    +0.000 A 
ATOM      8  C   UNL     1     -58.587 -43.092 -80.697  0.00  0.00    +0.000 A 
ATOM      9  C   UNL     1     -58.235 -43.449 -79.390  0.00  0.00    +0.000 A 
ATOM     10 CL   UNL     1     -59.367 -44.476 -78.578  0.00  0.00    +0.000 Cl
ATOM     11  C   UNL     1     -57.029 -42.978 -78.833  0.00  0.00    +0.000 A 
ATOM     12  C   UNL     1     -56.589 -43.294 -77.445  0.00  0.00    +0.000 A 
ATOM     13  O   UNL     1     -57.275 -44.026 -76.739  0.00  0.00    +0.000 OA
ATOM     14  H   UNL     1     -54.237 -41.463 -79.720  0.00  0.00    +0.000 HD
ENDROOT
BRANCH   1  16
ATOM     15  C   UNL     1     -53.925 -44.276 -75.290  0.00  0.00    +0.000 C 
ATOM     16  C   UNL     1     -54.862 -43.107 -75.514  0.00  0.00    +0.000 C 
ATOM     17  O   UNL     1     -55.270 -42.471 -74.542  0.00  0.00    +0.000 OA
ENDBRANCH   1  16
BRANCH   2  18
ATOM     18  S   UNL     1     -52.815 -41.578 -77.411  0.00  0.00    +0.000 S 
ATOM     19  O   UNL     1     -52.076 -41.962 -78.665  0.00  0.00    +0.000 OA
BRANCH  18  20
ATOM     20  C   UNL     1     -52.968 -39.756 -77.459  0.00  0.00    +0.000 C 
BRANCH  20  21
ATOM     21  C   UNL     1     -51.886 -39.102 -76.666  0.00  0.00    +0.000 A 
ATOM     22  C   UNL     1     -50.760 -39.690 -76.029  0.00  0.00    +0.000 A 
ATOM     23  C   UNL     1     -50.081 -38.630 -75.480  0.00  0.00    +0.000 A 
ATOM     24  C   UNL     1     -48.851 -38.491 -74.676  0.00  0.00    +0.000 C 
ATOM     25  O   UNL     1     -50.740 -37.478 -75.778  0.00  0.00    +0.000 OA
ATOM     26  N   UNL     1     -51.866 -37.768 -76.528  0.00  0.00    +0.000 NA
ENDBRANCH  20  21
ENDBRANCH  18  20
ENDBRANCH   2  18
TORSDOF 4
ENDMDL
MODEL 8
REMARK VINA RESULT:    -5.844     14.680     15.773
REMARK INTER + INTRA:          -7.891
REMARK INTER:                  -7.179
REMARK INTRA:                  -0.712
REMARK UNBOUND:                -0.681
REMARK  Name = 
REMARK  6 active torsions:
REMARK  status: ('A' for Active; 'I' for Inactive)
REMARK    1  A    between atoms: C_1  and  C_2
REMARK    2  A    between atoms: C_2  and  C_4
REMARK    3  A    between atoms: C_5  and  S_6
REMARK    4  A    between atoms: S_6  and  C_8
REMARK    5  A    between atoms: C_8  and  C_9
REMARK    6  A    between atoms: C_11  and  C_12
REMARK                            x       y       z     vdW  Elec       q    Type
REMARK                         _______ _______ _______ _____ _____    ______ ____
ROOT
ATOM      1  C   UNL     1     -53.913 -42.833 -76.700  0.00  0.00    +0.000 A 
ATOM      2  C   UNL     1     -54.369 -43.819 -77.504  0.00  0.00    +0.000 A 
ATOM      3  N   UNL     1     -54.597 -43.654 -78.856  0.00  0.00    +0.000 N 
ATOM      4  C   UNL     1     -54.506 -42.406 -79.497  0.00  0.00    +0.000 A 
ATOM      5  C   UNL     1     -54.764 -42.282 -80.874  0.00  0.00    +0.000 A 
ATOM      6 BR   UNL     1     -55.305 -43.784 -81.907  0.00  0.00    +0.000 Br
ATOM      7  C   UNL     1     -54.625 -41.058 -81.525  0.00  0.00    +0.000 A 
ATOM      8  C   UNL     1     -54.223 -39.940 -80.803  0.00  0.00    +0.000 A 
ATOM      9  C   UNL     1     -53.938 -40.039 -79.436  0.00  0.00    +0.000 A 
ATOM     10 CL   UNL     1     -53.459 -38.560 -78.675  0.00  0.00    +0.000 Cl
ATOM     11  C   UNL     1     -54.056 -41.282 -78.781  0.00  0.00    +0.000 A 
ATOM     12  C   UNL     1     -53.754 -41.478 -77.336  0.00  0.00    +0.000 A 
ATOM     13  O   UNL     1     -53.415 -40.521 -76.648  0.00  0.00    +0.000 OA
ATOM     14  H   UNL     1     -55.248 -44.316 -79.277  0.00  0.00    +0.000 HD
ENDROOT
BRANCH   1  16
ATOM     15  C   UNL     1     -52.238 -43.500 -74.822  0.00  0.00    +0.000 C 
ATOM     16  C   UNL     1     -53.606 -42.998 -75.235  0.00  0.00    +0.000 C 
ATOM     17  O   UNL     1     -54.441 -42.748 -74.365  0.00  0.00    +0.000 OA
ENDBRANCH   1  16
BRANCH   2  18
ATOM     18  S   UNL     1     -54.901 -45.429 -76.827  0.00  0.00    +0.000 S 
ATOM     19  O   UNL     1     -56.251 -45.128 -76.233  0.00  0.00    +0.000 OA
BRANCH  18  20
ATOM     20  C   UNL     1     -55.229 -46.319 -78.391  0.00  0.00    +0.000 C 
BRANCH  20  21
ATOM     21  C   UNL     1     -55.737 -47.698 -78.131  0.00  0.00    +0.000 A 
ATOM     22  C   UNL     1     -56.803 -48.395 -78.760  0.00  0.00    +0.000 A 
ATOM     23  C   UNL     1     -56.808 -49.631 -78.161  0.00  0.00    +0.000 A 
ATOM     24  C   UNL     1     -57.635 -50.846 -78.299  0.00  0.00    +0.000 C 
ATOM     25  O   UNL     1     -55.805 -49.685 -77.245  0.00  0.00    +0.000 OA
ATOM     26  N   UNL     1     -55.126 -48.480 -77.229  0.00  0.00    +0.000 NA
ENDBRANCH  20  21
ENDBRANCH  18  20
ENDBRANCH   2  18
TORSDOF 4
ENDMDL
MODEL 9
REMARK VINA RESULT:    -5.818     16.395     18.557
REMARK INTER + INTRA:          -7.859
REMARK INTER:                  -7.051
REMARK INTRA:                  -0.808
REMARK UNBOUND:                -0.681
REMARK  Name = 
REMARK  6 active torsions:
REMARK  status: ('A' for Active; 'I' for Inactive)
REMARK    1  A    between atoms: C_1  and  C_2
REMARK    2  A    between atoms: C_2  and  C_4
REMARK    3  A    between atoms: C_5  and  S_6
REMARK    4  A    between atoms: S_6  and  C_8
REMARK    5  A    between atoms: C_8  and  C_9
REMARK    6  A    between atoms: C_11  and  C_12
REMARK                            x       y       z     vdW  Elec       q    Type
REMARK                         _______ _______ _______ _____ _____    ______ ____
ROOT
ATOM      1  C   UNL     1     -69.081 -50.980 -55.151  0.00  0.00    +0.000 A 
ATOM      2  C   UNL     1     -68.224 -49.937 -55.208  0.00  0.00    +0.000 A 
ATOM      3  N   UNL     1     -67.000 -49.922 -54.569  0.00  0.00    +0.000 N 
ATOM      4  C   UNL     1     -66.589 -50.937 -53.689  0.00  0.00    +0.000 A 
ATOM      5  C   UNL     1     -65.338 -50.873 -53.047  0.00  0.00    +0.000 A 
ATOM      6 BR   UNL     1     -64.185 -49.382 -53.298  0.00  0.00    +0.000 Br
ATOM      7  C   UNL     1     -64.903 -51.901 -52.214  0.00  0.00    +0.000 A 
ATOM      8  C   UNL     1     -65.716 -53.011 -52.013  0.00  0.00    +0.000 A 
ATOM      9  C   UNL     1     -66.956 -53.113 -52.656  0.00  0.00    +0.000 A 
ATOM     10 CL   UNL     1     -67.855 -54.547 -52.299  0.00  0.00    +0.000 Cl
ATOM     11  C   UNL     1     -67.386 -52.083 -53.518  0.00  0.00    +0.000 A 
ATOM     12  C   UNL     1     -68.680 -52.120 -54.256  0.00  0.00    +0.000 A 
ATOM     13  O   UNL     1     -69.445 -53.067 -54.099  0.00  0.00    +0.000 OA
ATOM     14  H   UNL     1     -66.608 -48.998 -54.386  0.00  0.00    +0.000 HD
ENDROOT
BRANCH   1  16
ATOM     15  C   UNL     1     -70.450 -51.679 -57.253  0.00  0.00    +0.000 C 
ATOM     16  C   UNL     1     -70.399 -51.044 -55.878  0.00  0.00    +0.000 C 
ATOM     17  O   UNL     1     -71.432 -50.583 -55.392  0.00  0.00    +0.000 OA
ENDBRANCH   1  16
BRANCH   2  18
ATOM     18  S   UNL     1     -68.695 -48.360 -55.999  0.00  0.00    +0.000 S 
ATOM     19  O   UNL     1     -69.512 -47.670 -54.940  0.00  0.00    +0.000 OA
BRANCH  18  20
ATOM     20  C   UNL     1     -67.068 -47.525 -55.998  0.00  0.00    +0.000 C 
BRANCH  20  21
ATOM     21  C   UNL     1     -66.452 -47.539 -57.358  0.00  0.00    +0.000 A 
ATOM     22  C   UNL     1     -65.273 -46.893 -57.816  0.00  0.00    +0.000 A 
ATOM     23  C   UNL     1     -65.158 -47.275 -59.130  0.00  0.00    +0.000 A 
ATOM     24  C   UNL     1     -64.202 -46.982 -60.215  0.00  0.00    +0.000 C 
ATOM     25  O   UNL     1     -66.187 -48.107 -59.442  0.00  0.00    +0.000 OA
ATOM     26  N   UNL     1     -66.996 -48.282 -58.333  0.00  0.00    +0.000 NA
ENDBRANCH  20  21
ENDBRANCH  18  20
ENDBRANCH   2  18
TORSDOF 4
ENDMDL
MODEL 10
REMARK VINA RESULT:    -5.790     13.952     15.464
REMARK INTER + INTRA:          -7.825
REMARK INTER:                  -6.987
REMARK INTRA:                  -0.838
REMARK UNBOUND:                -0.681
REMARK  Name = 
REMARK  6 active torsions:
REMARK  status: ('A' for Active; 'I' for Inactive)
REMARK    1  A    between atoms: C_1  and  C_2
REMARK    2  A    between atoms: C_2  and  C_4
REMARK    3  A    between atoms: C_5  and  S_6
REMARK    4  A    between atoms: S_6  and  C_8
REMARK    5  A    between atoms: C_8  and  C_9
REMARK    6  A    between atoms: C_11  and  C_12
REMARK                            x       y       z     vdW  Elec       q    Type
REMARK                         _______ _______ _______ _____ _____    ______ ____
ROOT
ATOM      1  C   UNL     1     -58.394 -44.974 -77.996  0.00  0.00    +0.000 A 
ATOM      2  C   UNL     1     -57.652 -43.947 -77.527  0.00  0.00    +0.000 A 
ATOM      3  N   UNL     1     -56.426 -44.112 -76.913  0.00  0.00    +0.000 N 
ATOM      4  C   UNL     1     -55.898 -45.375 -76.595  0.00  0.00    +0.000 A 
ATOM      5  C   UNL     1     -54.651 -45.495 -75.954  0.00  0.00    +0.000 A 
ATOM      6 BR   UNL     1     -53.665 -43.954 -75.437  0.00  0.00    +0.000 Br
ATOM      7  C   UNL     1     -54.098 -46.745 -75.683  0.00  0.00    +0.000 A 
ATOM      8  C   UNL     1     -54.788 -47.894 -76.054  0.00  0.00    +0.000 A 
ATOM      9  C   UNL     1     -56.020 -47.805 -76.714  0.00  0.00    +0.000 A 
ATOM     10 CL   UNL     1     -56.758 -49.321 -77.101  0.00  0.00    +0.000 Cl
ATOM     11  C   UNL     1     -56.569 -46.540 -77.009  0.00  0.00    +0.000 A 
ATOM     12  C   UNL     1     -57.862 -46.356 -77.724  0.00  0.00    +0.000 A 
ATOM     13  O   UNL     1     -58.522 -47.336 -78.055  0.00  0.00    +0.000 OA
ATOM     14  H   UNL     1     -56.131 -43.348 -76.306  0.00  0.00    +0.000 HD
ENDROOT
BRANCH   1  16
ATOM     15  C   UNL     1     -60.996 -44.913 -77.923  0.00  0.00    +0.000 C 
ATOM     16  C   UNL     1     -59.708 -44.821 -78.715  0.00  0.00    +0.000 C 
ATOM     17  O   UNL     1     -59.765 -44.637 -79.932  0.00  0.00    +0.000 OA
ENDBRANCH   1  16
BRANCH   2  18
ATOM     18  S   UNL     1     -58.297 -42.239 -77.506  0.00  0.00    +0.000 S 
ATOM     19  O   UNL     1     -57.682 -41.651 -76.264  0.00  0.00    +0.000 OA
BRANCH  18  20
ATOM     20  C   UNL     1     -57.353 -41.543 -78.909  0.00  0.00    +0.000 C 
BRANCH  20  21
ATOM     21  C   UNL     1     -55.934 -41.280 -78.529  0.00  0.00    +0.000 A 
ATOM     22  C   UNL     1     -55.390 -40.199 -77.787  0.00  0.00    +0.000 A 
ATOM     23  C   UNL     1     -54.047 -40.478 -77.703  0.00  0.00    +0.000 A 
ATOM     24  C   UNL     1     -52.883 -39.799 -77.102  0.00  0.00    +0.000 C 
ATOM     25  O   UNL     1     -53.798 -41.655 -78.336  0.00  0.00    +0.000 OA
ATOM     26  N   UNL     1     -54.979 -42.166 -78.847  0.00  0.00    +0.000 NA
ENDBRANCH  20  21
ENDBRANCH  18  20
ENDBRANCH   2  18
TORSDOF 4
ENDMDL
MODEL 11
REMARK VINA RESULT:    -5.778     13.845     15.217
REMARK INTER + INTRA:          -7.810
REMARK INTER:                  -6.758
REMARK INTRA:                  -1.052
REMARK UNBOUND:                -0.681
REMARK  Name = 
REMARK  6 active torsions:
REMARK  status: ('A' for Active; 'I' for Inactive)
REMARK    1  A    between atoms: C_1  and  C_2
REMARK    2  A    between atoms: C_2  and  C_4
REMARK    3  A    between atoms: C_5  and  S_6
REMARK    4  A    between atoms: S_6  and  C_8
REMARK    5  A    between atoms: C_8  and  C_9
REMARK    6  A    between atoms: C_11  and  C_12
REMARK                            x       y       z     vdW  Elec       q    Type
REMARK                         _______ _______ _______ _____ _____    ______ ____
ROOT
ATOM      1  C   UNL     1     -56.896 -42.496 -76.902  0.00  0.00    +0.000 A 
ATOM      2  C   UNL     1     -55.783 -43.136 -76.482  0.00  0.00    +0.000 A 
ATOM      3  N   UNL     1     -55.607 -44.502 -76.582  0.00  0.00    +0.000 N 
ATOM      4  C   UNL     1     -56.626 -45.372 -77.006  0.00  0.00    +0.000 A 
ATOM      5  C   UNL     1     -56.406 -46.760 -77.076  0.00  0.00    +0.000 A 
ATOM      6 BR   UNL     1     -54.746 -47.516 -76.542  0.00  0.00    +0.000 Br
ATOM      7  C   UNL     1     -57.395 -47.622 -77.544  0.00  0.00    +0.000 A 
ATOM      8  C   UNL     1     -58.619 -47.104 -77.952  0.00  0.00    +0.000 A 
ATOM      9  C   UNL     1     -58.858 -45.724 -77.914  0.00  0.00    +0.000 A 
ATOM     10 CL   UNL     1     -60.431 -45.235 -78.443  0.00  0.00    +0.000 Cl
ATOM     11  C   UNL     1     -57.849 -44.849 -77.462  0.00  0.00    +0.000 A 
ATOM     12  C   UNL     1     -58.013 -43.370 -77.408  0.00  0.00    +0.000 A 
ATOM     13  O   UNL     1     -59.080 -42.861 -77.736  0.00  0.00    +0.000 OA
ATOM     14  H   UNL     1     -54.923 -44.906 -75.942  0.00  0.00    +0.000 HD
ENDROOT
BRANCH   1  16
ATOM     15  C   UNL     1     -57.697 -40.381 -75.612  0.00  0.00    +0.000 C 
ATOM     16  C   UNL     1     -57.095 -41.004 -76.854  0.00  0.00    +0.000 C 
ATOM     17  O   UNL     1     -56.794 -40.278 -77.803  0.00  0.00    +0.000 OA
ENDBRANCH   1  16
BRANCH   2  18
ATOM     18  S   UNL     1     -54.468 -42.257 -75.569  0.00  0.00    +0.000 S 
ATOM     19  O   UNL     1     -54.052 -43.251 -74.517  0.00  0.00    +0.000 OA
BRANCH  18  20
ATOM     20  C   UNL     1     -53.150 -42.288 -76.836  0.00  0.00    +0.000 C 
BRANCH  20  21
ATOM     21  C   UNL     1     -53.394 -41.264 -77.895  0.00  0.00    +0.000 A 
ATOM     22  C   UNL     1     -53.753 -41.450 -79.256  0.00  0.00    +0.000 A 
ATOM     23  C   UNL     1     -53.884 -40.178 -79.756  0.00  0.00    +0.000 A 
ATOM     24  C   UNL     1     -54.217 -39.613 -81.078  0.00  0.00    +0.000 C 
ATOM     25  O   UNL     1     -53.639 -39.283 -78.762  0.00  0.00    +0.000 OA
ATOM     26  N   UNL     1     -53.340 -39.959 -77.592  0.00  0.00    +0.000 NA
ENDBRANCH  20  21
ENDBRANCH  18  20
ENDBRANCH   2  18
TORSDOF 4
ENDMDL
MODEL 12
REMARK VINA RESULT:    -5.776     15.969     18.270
REMARK INTER + INTRA:          -7.807
REMARK INTER:                  -7.147
REMARK INTRA:                  -0.660
REMARK UNBOUND:                -0.681
REMARK  Name = 
REMARK  6 active torsions:
REMARK  status: ('A' for Active; 'I' for Inactive)
REMARK    1  A    between atoms: C_1  and  C_2
REMARK    2  A    between atoms: C_2  and  C_4
REMARK    3  A    between atoms: C_5  and  S_6
REMARK    4  A    between atoms: S_6  and  C_8
REMARK    5  A    between atoms: C_8  and  C_9
REMARK    6  A    between atoms: C_11  and  C_12
REMARK                            x       y       z     vdW  Elec       q    Type
REMARK                         _______ _______ _______ _____ _____    ______ ____
ROOT
ATOM      1  C   UNL     1     -65.807 -49.480 -53.042  0.00  0.00    +0.000 A 
ATOM      2  C   UNL     1     -66.707 -49.046 -53.952  0.00  0.00    +0.000 A 
ATOM      3  N   UNL     1     -67.605 -49.878 -54.591  0.00  0.00    +0.000 N 
ATOM      4  C   UNL     1     -67.576 -51.277 -54.456  0.00  0.00    +0.000 A 
ATOM      5  C   UNL     1     -68.501 -52.087 -55.139  0.00  0.00    +0.000 A 
ATOM      6 BR   UNL     1     -69.783 -51.326 -56.319  0.00  0.00    +0.000 Br
ATOM      7  C   UNL     1     -68.511 -53.469 -54.969  0.00  0.00    +0.000 A 
ATOM      8  C   UNL     1     -67.593 -54.060 -54.107  0.00  0.00    +0.000 A 
ATOM      9  C   UNL     1     -66.676 -53.276 -53.396  0.00  0.00    +0.000 A 
ATOM     10 CL   UNL     1     -65.594 -54.157 -52.373  0.00  0.00    +0.000 Cl
ATOM     11  C   UNL     1     -66.681 -51.875 -53.551  0.00  0.00    +0.000 A 
ATOM     12  C   UNL     1     -65.753 -50.967 -52.820  0.00  0.00    +0.000 A 
ATOM     13  O   UNL     1     -64.909 -51.438 -52.063  0.00  0.00    +0.000 OA
ATOM     14  H   UNL     1     -67.975 -49.531 -55.476  0.00  0.00    +0.000 HD
ENDROOT
BRANCH   1  16
ATOM     15  C   UNL     1     -65.367 -47.777 -51.123  0.00  0.00    +0.000 C 
ATOM     16  C   UNL     1     -64.851 -48.590 -52.293  0.00  0.00    +0.000 C 
ATOM     17  O   UNL     1     -63.666 -48.494 -52.612  0.00  0.00    +0.000 OA
ENDBRANCH   1  16
BRANCH   2  18
ATOM     18  S   UNL     1     -66.693 -47.323 -54.557  0.00  0.00    +0.000 S 
ATOM     19  O   UNL     1     -65.315 -47.172 -55.144  0.00  0.00    +0.000 OA
BRANCH  18  20
ATOM     20  C   UNL     1     -67.826 -47.496 -55.982  0.00  0.00    +0.000 C 
BRANCH  20  21
ATOM     21  C   UNL     1     -67.096 -47.344 -57.275  0.00  0.00    +0.000 A 
ATOM     22  C   UNL     1     -66.548 -48.346 -58.119  0.00  0.00    +0.000 A 
ATOM     23  C   UNL     1     -66.027 -47.653 -59.185  0.00  0.00    +0.000 A 
ATOM     24  C   UNL     1     -65.305 -48.033 -60.415  0.00  0.00    +0.000 C 
ATOM     25  O   UNL     1     -66.257 -46.325 -59.007  0.00  0.00    +0.000 OA
ATOM     26  N   UNL     1     -66.934 -46.127 -57.816  0.00  0.00    +0.000 NA
ENDBRANCH  20  21
ENDBRANCH  18  20
ENDBRANCH   2  18
TORSDOF 4
ENDMDL
MODEL 13
REMARK VINA RESULT:    -5.359     12.201     14.079
REMARK INTER + INTRA:          -7.292
REMARK INTER:                  -6.202
REMARK INTRA:                  -1.091
REMARK UNBOUND:                -0.681
REMARK  Name = 
REMARK  6 active torsions:
REMARK  status: ('A' for Active; 'I' for Inactive)
REMARK    1  A    between atoms: C_1  and  C_2
REMARK    2  A    between atoms: C_2  and  C_4
REMARK    3  A    between atoms: C_5  and  S_6
REMARK    4  A    between atoms: S_6  and  C_8
REMARK    5  A    between atoms: C_8  and  C_9
REMARK    6  A    between atoms: C_11  and  C_12
REMARK                            x       y       z     vdW  Elec       q    Type
REMARK                         _______ _______ _______ _____ _____    ______ ____
ROOT
ATOM      1  C   UNL     1     -66.074 -43.402 -69.895  0.00  0.00    +0.000 A 
ATOM      2  C   UNL     1     -65.100 -43.790 -70.748  0.00  0.00    +0.000 A 
ATOM      3  N   UNL     1     -65.254 -43.813 -72.120  0.00  0.00    +0.000 N 
ATOM      4  C   UNL     1     -66.485 -43.565 -72.752  0.00  0.00    +0.000 A 
ATOM      5  C   UNL     1     -66.600 -43.615 -74.153  0.00  0.00    +0.000 A 
ATOM      6 BR   UNL     1     -65.111 -44.082 -75.240  0.00  0.00    +0.000 Br
ATOM      7  C   UNL     1     -67.804 -43.319 -74.788  0.00  0.00    +0.000 A 
ATOM      8  C   UNL     1     -68.912 -42.965 -74.026  0.00  0.00    +0.000 A 
ATOM      9  C   UNL     1     -68.821 -42.885 -72.630  0.00  0.00    +0.000 A 
ATOM     10 CL   UNL     1     -70.285 -42.442 -71.822  0.00  0.00    +0.000 Cl
ATOM     11  C   UNL     1     -67.596 -43.162 -71.989  0.00  0.00    +0.000 A 
ATOM     12  C   UNL     1     -67.408 -43.081 -70.514  0.00  0.00    +0.000 A 
ATOM     13  O   UNL     1     -68.358 -42.794 -69.792  0.00  0.00    +0.000 OA
ATOM     14  H   UNL     1     -64.619 -44.431 -72.625  0.00  0.00    +0.000 HD
ENDROOT
BRANCH   1  16
ATOM     15  C   UNL     1     -65.552 -41.988 -67.773  0.00  0.00    +0.000 C 
ATOM     16  C   UNL     1     -65.917 -43.317 -68.400  0.00  0.00    +0.000 C 
ATOM     17  O   UNL     1     -66.064 -44.302 -67.675  0.00  0.00    +0.000 OA
ENDBRANCH   1  16
BRANCH   2  18
ATOM     18  S   UNL     1     -63.530 -44.498 -70.141  0.00  0.00    +0.000 S 
ATOM     19  O   UNL     1     -63.338 -45.714 -71.008  0.00  0.00    +0.000 OA
BRANCH  18  20
ATOM     20  C   UNL     1     -62.366 -43.240 -70.779  0.00  0.00    +0.000 C 
BRANCH  20  21
ATOM     21  C   UNL     1     -62.502 -41.952 -70.037  0.00  0.00    +0.000 A 
ATOM     22  C   UNL     1     -63.171 -40.761 -70.424  0.00  0.00    +0.000 A 
ATOM     23  C   UNL     1     -63.012 -39.913 -69.355  0.00  0.00    +0.000 A 
ATOM     24  C   UNL     1     -63.422 -38.526 -69.063  0.00  0.00    +0.000 C 
ATOM     25  O   UNL     1     -62.311 -40.552 -68.381  0.00  0.00    +0.000 OA
ATOM     26  N   UNL     1     -61.996 -41.833 -68.800  0.00  0.00    +0.000 NA
ENDBRANCH  20  21
ENDBRANCH  18  20
ENDBRANCH   2  18
TORSDOF 4
ENDMDL
MODEL 14
REMARK VINA RESULT:    -5.357     10.839     12.490
REMARK INTER + INTRA:          -7.290
REMARK INTER:                  -6.236
REMARK INTRA:                  -1.054
REMARK UNBOUND:                -0.681
REMARK  Name = 
REMARK  6 active torsions:
REMARK  status: ('A' for Active; 'I' for Inactive)
REMARK    1  A    between atoms: C_1  and  C_2
REMARK    2  A    between atoms: C_2  and  C_4
REMARK    3  A    between atoms: C_5  and  S_6
REMARK    4  A    between atoms: S_6  and  C_8
REMARK    5  A    between atoms: C_8  and  C_9
REMARK    6  A    between atoms: C_11  and  C_12
REMARK                            x       y       z     vdW  Elec       q    Type
REMARK                         _______ _______ _______ _____ _____    ______ ____
ROOT
ATOM      1  C   UNL     1     -66.142 -40.608 -70.154  0.00  0.00    +0.000 A 
ATOM      2  C   UNL     1     -65.146 -40.247 -69.316  0.00  0.00    +0.000 A 
ATOM      3  N   UNL     1     -65.282 -40.213 -67.942  0.00  0.00    +0.000 N 
ATOM      4  C   UNL     1     -66.511 -40.421 -67.293  0.00  0.00    +0.000 A 
ATOM      5  C   UNL     1     -66.606 -40.360 -65.891  0.00  0.00    +0.000 A 
ATOM      6 BR   UNL     1     -65.090 -39.934 -64.825  0.00  0.00    +0.000 Br
ATOM      7  C   UNL     1     -67.810 -40.616 -65.239  0.00  0.00    +0.000 A 
ATOM      8  C   UNL     1     -68.938 -40.939 -65.986  0.00  0.00    +0.000 A 
ATOM      9  C   UNL     1     -68.868 -41.028 -67.381  0.00  0.00    +0.000 A 
ATOM     10 CL   UNL     1     -70.355 -41.429 -68.169  0.00  0.00    +0.000 Cl
ATOM     11  C   UNL     1     -67.643 -40.792 -68.040  0.00  0.00    +0.000 A 
ATOM     12  C   UNL     1     -67.477 -40.885 -69.517  0.00  0.00    +0.000 A 
ATOM     13  O   UNL     1     -68.445 -41.146 -70.225  0.00  0.00    +0.000 OA
ATOM     14  H   UNL     1     -64.621 -39.612 -67.448  0.00  0.00    +0.000 HD
ENDROOT
BRANCH   1  16
ATOM     15  C   UNL     1     -65.694 -42.047 -72.277  0.00  0.00    +0.000 C 
ATOM     16  C   UNL     1     -66.008 -40.704 -71.651  0.00  0.00    +0.000 C 
ATOM     17  O   UNL     1     -66.133 -39.719 -72.379  0.00  0.00    +0.000 OA
ENDBRANCH   1  16
BRANCH   2  18
ATOM     18  S   UNL     1     -63.563 -39.590 -69.947  0.00  0.00    +0.000 S 
ATOM     19  O   UNL     1     -63.392 -38.303 -69.184  0.00  0.00    +0.000 OA
BRANCH  18  20
ATOM     20  C   UNL     1     -62.413 -40.785 -69.176  0.00  0.00    +0.000 C 
BRANCH  20  21
ATOM     21  C   UNL     1     -62.844 -42.191 -69.429  0.00  0.00    +0.000 A 
ATOM     22  C   UNL     1     -62.709 -42.972 -70.607  0.00  0.00    +0.000 A 
ATOM     23  C   UNL     1     -63.242 -44.194 -70.274  0.00  0.00    +0.000 A 
ATOM     24  C   UNL     1     -63.448 -45.465 -70.994  0.00  0.00    +0.000 C 
ATOM     25  O   UNL     1     -63.655 -44.160 -68.980  0.00  0.00    +0.000 OA
ATOM     26  N   UNL     1     -63.401 -42.910 -68.443  0.00  0.00    +0.000 NA
ENDBRANCH  20  21
ENDBRANCH  18  20
ENDBRANCH   2  18
TORSDOF 4
ENDMDL
MODEL 15
REMARK VINA RESULT:    -5.323     14.723     16.772
REMARK INTER + INTRA:          -7.249
REMARK INTER:                  -6.583
REMARK INTRA:                  -0.665
REMARK UNBOUND:                -0.681
REMARK  Name = 
REMARK  6 active torsions:
REMARK  status: ('A' for Active; 'I' for Inactive)
REMARK    1  A    between atoms: C_1  and  C_2
REMARK    2  A    between atoms: C_2  and  C_4
REMARK    3  A    between atoms: C_5  and  S_6
REMARK    4  A    between atoms: S_6  and  C_8
REMARK    5  A    between atoms: C_8  and  C_9
REMARK    6  A    between atoms: C_11  and  C_12
REMARK                            x       y       z     vdW  Elec       q    Type
REMARK                         _______ _______ _______ _____ _____    ______ ____
ROOT
ATOM      1  C   UNL     1     -64.666 -46.288 -54.222  0.00  0.00    +0.000 A 
ATOM      2  C   UNL     1     -65.730 -47.079 -53.961  0.00  0.00    +0.000 A 
ATOM      3  N   UNL     1     -66.424 -47.767 -54.936  0.00  0.00    +0.000 N 
ATOM      4  C   UNL     1     -66.173 -47.602 -56.309  0.00  0.00    +0.000 A 
ATOM      5  C   UNL     1     -66.917 -48.313 -57.269  0.00  0.00    +0.000 A 
ATOM      6 BR   UNL     1     -68.330 -49.474 -56.748  0.00  0.00    +0.000 Br
ATOM      7  C   UNL     1     -66.639 -48.193 -58.628  0.00  0.00    +0.000 A 
ATOM      8  C   UNL     1     -65.607 -47.360 -59.046  0.00  0.00    +0.000 A 
ATOM      9  C   UNL     1     -64.835 -46.658 -58.111  0.00  0.00    +0.000 A 
ATOM     10 CL   UNL     1     -63.596 -45.656 -58.785  0.00  0.00    +0.000 Cl
ATOM     11  C   UNL     1     -65.101 -46.797 -56.734  0.00  0.00    +0.000 A 
ATOM     12  C   UNL     1     -64.318 -46.103 -55.674  0.00  0.00    +0.000 A 
ATOM     13  O   UNL     1     -63.410 -45.339 -55.988  0.00  0.00    +0.000 OA
ATOM     14  H   UNL     1     -67.379 -48.032 -54.694  0.00  0.00    +0.000 HD
ENDROOT
BRANCH   1  16
ATOM     15  C   UNL     1     -64.205 -44.132 -52.838  0.00  0.00    +0.000 C 
ATOM     16  C   UNL     1     -63.859 -45.567 -53.175  0.00  0.00    +0.000 C 
ATOM     17  O   UNL     1     -62.917 -46.108 -52.595  0.00  0.00    +0.000 OA
ENDBRANCH   1  16
BRANCH   2  18
ATOM     18  S   UNL     1     -66.464 -47.165 -52.291  0.00  0.00    +0.000 S 
ATOM     19  O   UNL     1     -67.763 -47.890 -52.519  0.00  0.00    +0.000 OA
BRANCH  18  20
ATOM     20  C   UNL     1     -65.336 -48.388 -51.530  0.00  0.00    +0.000 C 
BRANCH  20  21
ATOM     21  C   UNL     1     -65.708 -49.780 -51.917  0.00  0.00    +0.000 A 
ATOM     22  C   UNL     1     -65.105 -50.637 -52.876  0.00  0.00    +0.000 A 
ATOM     23  C   UNL     1     -65.822 -51.805 -52.796  0.00  0.00    +0.000 A 
ATOM     24  C   UNL     1     -65.769 -53.104 -53.494  0.00  0.00    +0.000 C 
ATOM     25  O   UNL     1     -66.783 -51.672 -51.843  0.00  0.00    +0.000 OA
ATOM     26  N   UNL     1     -66.711 -50.408 -51.284  0.00  0.00    +0.000 NA
ENDBRANCH  20  21
ENDBRANCH  18  20
ENDBRANCH   2  18
TORSDOF 4
ENDMDL
MODEL 16
REMARK VINA RESULT:    -5.240     18.862     21.058
REMARK INTER + INTRA:          -7.146
REMARK INTER:                  -6.483
REMARK INTRA:                  -0.662
REMARK UNBOUND:                -0.681
REMARK  Name = 
REMARK  6 active torsions:
REMARK  status: ('A' for Active; 'I' for Inactive)
REMARK    1  A    between atoms: C_1  and  C_2
REMARK    2  A    between atoms: C_2  and  C_4
REMARK    3  A    between atoms: C_5  and  S_6
REMARK    4  A    between atoms: S_6  and  C_8
REMARK    5  A    between atoms: C_8  and  C_9
REMARK    6  A    between atoms: C_11  and  C_12
REMARK                            x       y       z     vdW  Elec       q    Type
REMARK                         _______ _______ _______ _____ _____    ______ ____
ROOT
ATOM      1  C   UNL     1     -66.898 -52.305 -52.765  0.00  0.00    +0.000 A 
ATOM      2  C   UNL     1     -68.032 -52.238 -53.496  0.00  0.00    +0.000 A 
ATOM      3  N   UNL     1     -68.238 -51.310 -54.498  0.00  0.00    +0.000 N 
ATOM      4  C   UNL     1     -67.341 -50.261 -54.761  0.00  0.00    +0.000 A 
ATOM      5  C   UNL     1     -67.600 -49.329 -55.782  0.00  0.00    +0.000 A 
ATOM      6 BR   UNL     1     -69.202 -49.416 -56.802  0.00  0.00    +0.000 Br
ATOM      7  C   UNL     1     -66.690 -48.318 -56.082  0.00  0.00    +0.000 A 
ATOM      8  C   UNL     1     -65.504 -48.228 -55.362  0.00  0.00    +0.000 A 
ATOM      9  C   UNL     1     -65.209 -49.156 -54.355  0.00  0.00    +0.000 A 
ATOM     10 CL   UNL     1     -63.701 -48.908 -53.544  0.00  0.00    +0.000 Cl
ATOM     11  C   UNL     1     -66.119 -50.194 -54.067  0.00  0.00    +0.000 A 
ATOM     12  C   UNL     1     -65.875 -51.232 -53.028  0.00  0.00    +0.000 A 
ATOM     13  O   UNL     1     -64.854 -51.188 -52.349  0.00  0.00    +0.000 OA
ATOM     14  H   UNL     1     -69.213 -51.122 -54.730  0.00  0.00    +0.000 HD
ENDROOT
BRANCH   1  16
ATOM     15  C   UNL     1     -67.078 -53.069 -50.283  0.00  0.00    +0.000 C 
ATOM     16  C   UNL     1     -66.624 -53.337 -51.703  0.00  0.00    +0.000 C 
ATOM     17  O   UNL     1     -66.030 -54.386 -51.955  0.00  0.00    +0.000 OA
ENDBRANCH   1  16
BRANCH   2  18
ATOM     18  S   UNL     1     -69.484 -53.270 -53.095  0.00  0.00    +0.000 S 
ATOM     19  O   UNL     1     -70.274 -52.406 -52.149  0.00  0.00    +0.000 OA
BRANCH  18  20
ATOM     20  C   UNL     1     -70.363 -53.189 -54.697  0.00  0.00    +0.000 C 
BRANCH  20  21
ATOM     21  C   UNL     1     -71.352 -54.299 -54.828  0.00  0.00    +0.000 A 
ATOM     22  C   UNL     1     -71.291 -55.464 -55.637  0.00  0.00    +0.000 A 
ATOM     23  C   UNL     1     -72.441 -56.153 -55.339  0.00  0.00    +0.000 A 
ATOM     24  C   UNL     1     -73.041 -57.419 -55.802  0.00  0.00    +0.000 C 
ATOM     25  O   UNL     1     -73.143 -55.461 -54.402  0.00  0.00    +0.000 OA
ATOM     26  N   UNL     1     -72.460 -54.303 -54.072  0.00  0.00    +0.000 NA
ENDBRANCH  20  21
ENDBRANCH  18  20
ENDBRANCH   2  18
TORSDOF 4
ENDMDL
MODEL 17
REMARK VINA RESULT:    -5.190     11.488     12.897
REMARK INTER + INTRA:          -7.084
REMARK INTER:                  -6.466
REMARK INTRA:                  -0.618
REMARK UNBOUND:                -0.681
REMARK  Name = 
REMARK  6 active torsions:
REMARK  status: ('A' for Active; 'I' for Inactive)
REMARK    1  A    between atoms: C_1  and  C_2
REMARK    2  A    between atoms: C_2  and  C_4
REMARK    3  A    between atoms: C_5  and  S_6
REMARK    4  A    between atoms: S_6  and  C_8
REMARK    5  A    between atoms: C_8  and  C_9
REMARK    6  A    between atoms: C_11  and  C_12
REMARK                            x       y       z     vdW  Elec       q    Type
REMARK                         _______ _______ _______ _____ _____    ______ ____
ROOT
ATOM      1  C   UNL     1     -64.199 -41.473 -70.549  0.00  0.00    +0.000 A 
ATOM      2  C   UNL     1     -63.313 -41.861 -71.492  0.00  0.00    +0.000 A 
ATOM      3  N   UNL     1     -63.670 -42.551 -72.634  0.00  0.00    +0.000 N 
ATOM      4  C   UNL     1     -64.971 -43.033 -72.856  0.00  0.00    +0.000 A 
ATOM      5  C   UNL     1     -65.286 -43.746 -74.028  0.00  0.00    +0.000 A 
ATOM      6 BR   UNL     1     -63.951 -44.137 -75.324  0.00  0.00    +0.000 Br
ATOM      7  C   UNL     1     -66.585 -44.182 -74.278  0.00  0.00    +0.000 A 
ATOM      8  C   UNL     1     -67.590 -43.907 -73.357  0.00  0.00    +0.000 A 
ATOM      9  C   UNL     1     -67.310 -43.180 -72.193  0.00  0.00    +0.000 A 
ATOM     10 CL   UNL     1     -68.661 -42.927 -71.141  0.00  0.00    +0.000 Cl
ATOM     11  C   UNL     1     -66.000 -42.718 -71.951  0.00  0.00    +0.000 A 
ATOM     12  C   UNL     1     -65.621 -41.923 -70.749  0.00  0.00    +0.000 A 
ATOM     13  O   UNL     1     -66.464 -41.670 -69.894  0.00  0.00    +0.000 OA
ATOM     14  H   UNL     1     -62.923 -43.084 -73.079  0.00  0.00    +0.000 HD
ENDROOT
BRANCH   1  16
ATOM     15  C   UNL     1     -63.757 -39.168 -69.424  0.00  0.00    +0.000 C 
ATOM     16  C   UNL     1     -63.847 -40.676 -69.321  0.00  0.00    +0.000 C 
ATOM     17  O   UNL     1     -63.617 -41.217 -68.239  0.00  0.00    +0.000 OA
ENDBRANCH   1  16
BRANCH   2  18
ATOM     18  S   UNL     1     -61.515 -41.661 -71.248  0.00  0.00    +0.000 S 
ATOM     19  O   UNL     1     -61.230 -42.514 -70.041  0.00  0.00    +0.000 OA
BRANCH  18  20
ATOM     20  C   UNL     1     -60.908 -42.611 -72.688  0.00  0.00    +0.000 C 
BRANCH  20  21
ATOM     21  C   UNL     1     -59.563 -42.132 -73.124  0.00  0.00    +0.000 A 
ATOM     22  C   UNL     1     -58.934 -42.258 -74.391  0.00  0.00    +0.000 A 
ATOM     23  C   UNL     1     -57.732 -41.608 -74.245  0.00  0.00    +0.000 A 
ATOM     24  C   UNL     1     -56.576 -41.357 -75.128  0.00  0.00    +0.000 C 
ATOM     25  O   UNL     1     -57.647 -41.109 -72.983  0.00  0.00    +0.000 OA
ATOM     26  N   UNL     1     -58.795 -41.427 -72.280  0.00  0.00    +0.000 NA
ENDBRANCH  20  21
ENDBRANCH  18  20
ENDBRANCH   2  18
TORSDOF 4
ENDMDL
MODEL 18
REMARK VINA RESULT:    -5.107     12.130     15.129
REMARK INTER + INTRA:          -6.981
REMARK INTER:                  -6.200
REMARK INTRA:                  -0.781
REMARK UNBOUND:                -0.681
REMARK  Name = 
REMARK  6 active torsions:
REMARK  status: ('A' for Active; 'I' for Inactive)
REMARK    1  A    between atoms: C_1  and  C_2
REMARK    2  A    between atoms: C_2  and  C_4
REMARK    3  A    between atoms: C_5  and  S_6
REMARK    4  A    between atoms: S_6  and  C_8
REMARK    5  A    between atoms: C_8  and  C_9
REMARK    6  A    between atoms: C_11  and  C_12
REMARK                            x       y       z     vdW  Elec       q    Type
REMARK                         _______ _______ _______ _____ _____    ______ ____
ROOT
ATOM      1  C   UNL     1     -66.499 -41.035 -70.857  0.00  0.00    +0.000 A 
ATOM      2  C   UNL     1     -67.127 -40.698 -69.708  0.00  0.00    +0.000 A 
ATOM      3  N   UNL     1     -66.461 -40.396 -68.537  0.00  0.00    +0.000 N 
ATOM      4  C   UNL     1     -65.071 -40.541 -68.393  0.00  0.00    +0.000 A 
ATOM      5  C   UNL     1     -64.436 -40.236 -67.175  0.00  0.00    +0.000 A 
ATOM      6 BR   UNL     1     -65.442 -39.676 -65.661  0.00  0.00    +0.000 Br
ATOM      7  C   UNL     1     -63.053 -40.329 -67.041  0.00  0.00    +0.000 A 
ATOM      8  C   UNL     1     -62.284 -40.727 -68.129  0.00  0.00    +0.000 A 
ATOM      9  C   UNL     1     -62.886 -41.015 -69.360  0.00  0.00    +0.000 A 
ATOM     10 CL   UNL     1     -61.799 -41.506 -70.614  0.00  0.00    +0.000 Cl
ATOM     11  C   UNL     1     -64.284 -40.899 -69.503  0.00  0.00    +0.000 A 
ATOM     12  C   UNL     1     -65.002 -41.167 -70.780  0.00  0.00    +0.000 A 
ATOM     13  O   UNL     1     -64.374 -41.542 -71.766  0.00  0.00    +0.000 OA
ATOM     14  H   UNL     1     -67.004 -40.503 -67.681  0.00  0.00    +0.000 HD
ENDROOT
BRANCH   1  16
ATOM     15  C   UNL     1     -67.512 -42.754 -72.529  0.00  0.00    +0.000 C 
ATOM     16  C   UNL     1     -67.196 -41.319 -72.161  0.00  0.00    +0.000 C 
ATOM     17  O   UNL     1     -67.503 -40.418 -72.943  0.00  0.00    +0.000 OA
ENDBRANCH   1  16
BRANCH   2  18
ATOM     18  S   UNL     1     -68.944 -40.791 -69.556  0.00  0.00    +0.000 S 
ATOM     19  O   UNL     1     -69.205 -42.264 -69.389  0.00  0.00    +0.000 OA
BRANCH  18  20
ATOM     20  C   UNL     1     -69.144 -40.057 -67.892  0.00  0.00    +0.000 C 
BRANCH  20  21
ATOM     21  C   UNL     1     -69.790 -38.713 -67.969  0.00  0.00    +0.000 A 
ATOM     22  C   UNL     1     -70.254 -37.880 -66.917  0.00  0.00    +0.000 A 
ATOM     23  C   UNL     1     -70.721 -36.753 -67.549  0.00  0.00    +0.000 A 
ATOM     24  C   UNL     1     -71.349 -35.497 -67.097  0.00  0.00    +0.000 C 
ATOM     25  O   UNL     1     -70.538 -36.888 -68.889  0.00  0.00    +0.000 OA
ATOM     26  N   UNL     1     -69.947 -38.110 -69.157  0.00  0.00    +0.000 NA
ENDBRANCH  20  21
ENDBRANCH  18  20
ENDBRANCH   2  18
TORSDOF 4
ENDMDL
MODEL 19
REMARK VINA RESULT:    -5.014     11.429     14.247
REMARK INTER + INTRA:          -6.866
REMARK INTER:                  -6.199
REMARK INTRA:                  -0.668
REMARK UNBOUND:                -0.681
REMARK  Name = 
REMARK  6 active torsions:
REMARK  status: ('A' for Active; 'I' for Inactive)
REMARK    1  A    between atoms: C_1  and  C_2
REMARK    2  A    between atoms: C_2  and  C_4
REMARK    3  A    between atoms: C_5  and  S_6
REMARK    4  A    between atoms: S_6  and  C_8
REMARK    5  A    between atoms: C_8  and  C_9
REMARK    6  A    between atoms: C_11  and  C_12
REMARK                            x       y       z     vdW  Elec       q    Type
REMARK                         _______ _______ _______ _____ _____    ______ ____
ROOT
ATOM      1  C   UNL     1     -64.633 -41.055 -70.232  0.00  0.00    +0.000 A 
ATOM      2  C   UNL     1     -65.869 -40.756 -69.772  0.00  0.00    +0.000 A 
ATOM      3  N   UNL     1     -66.127 -40.395 -68.465  0.00  0.00    +0.000 N 
ATOM      4  C   UNL     1     -65.150 -40.435 -67.456  0.00  0.00    +0.000 A 
ATOM      5  C   UNL     1     -65.463 -40.073 -66.133  0.00  0.00    +0.000 A 
ATOM      6 BR   UNL     1     -67.233 -39.577 -65.647  0.00  0.00    +0.000 Br
ATOM      7  C   UNL     1     -64.487 -40.061 -65.139  0.00  0.00    +0.000 A 
ATOM      8  C   UNL     1     -63.179 -40.410 -65.459  0.00  0.00    +0.000 A 
ATOM      9  C   UNL     1     -62.834 -40.752 -66.772  0.00  0.00    +0.000 A 
ATOM     10 CL   UNL     1     -61.172 -41.172 -67.010  0.00  0.00    +0.000 Cl
ATOM     11  C   UNL     1     -63.817 -40.742 -67.783  0.00  0.00    +0.000 A 
ATOM     12  C   UNL     1     -63.531 -41.075 -69.206  0.00  0.00    +0.000 A 
ATOM     13  O   UNL     1     -62.399 -41.410 -69.540  0.00  0.00    +0.000 OA
ATOM     14  H   UNL     1     -67.088 -40.535 -68.150  0.00  0.00    +0.000 HD
ENDROOT
BRANCH   1  16
ATOM     15  C   UNL     1     -64.151 -42.857 -72.047  0.00  0.00    +0.000 C 
ATOM     16  C   UNL     1     -64.313 -41.401 -71.662  0.00  0.00    +0.000 C 
ATOM     17  O   UNL     1     -64.166 -40.533 -72.523  0.00  0.00    +0.000 OA
ENDBRANCH   1  16
BRANCH   2  18
ATOM     18  S   UNL     1     -67.351 -40.983 -70.813  0.00  0.00    +0.000 S 
ATOM     19  O   UNL     1     -67.394 -42.471 -71.038  0.00  0.00    +0.000 OA
BRANCH  18  20
ATOM     20  C   UNL     1     -68.647 -40.628 -69.573  0.00  0.00    +0.000 C 
BRANCH  20  21
ATOM     21  C   UNL     1     -69.175 -39.240 -69.725  0.00  0.00    +0.000 A 
ATOM     22  C   UNL     1     -69.142 -38.387 -70.860  0.00  0.00    +0.000 A 
ATOM     23  C   UNL     1     -69.799 -37.250 -70.458  0.00  0.00    +0.000 A 
ATOM     24  C   UNL     1     -70.125 -35.961 -71.097  0.00  0.00    +0.000 C 
ATOM     25  O   UNL     1     -70.216 -37.409 -69.174  0.00  0.00    +0.000 OA
ATOM     26  N   UNL     1     -69.836 -38.658 -68.713  0.00  0.00    +0.000 NA
ENDBRANCH  20  21
ENDBRANCH  18  20
ENDBRANCH   2  18
TORSDOF 4
ENDMDL
MODEL 20
REMARK VINA RESULT:    -4.892     13.401     15.455
REMARK INTER + INTRA:          -6.717
REMARK INTER:                  -5.979
REMARK INTRA:                  -0.738
REMARK UNBOUND:                -0.681
REMARK  Name = 
REMARK  6 active torsions:
REMARK  status: ('A' for Active; 'I' for Inactive)
REMARK    1  A    between atoms: C_1  and  C_2
REMARK    2  A    between atoms: C_2  and  C_4
REMARK    3  A    between atoms: C_5  and  S_6
REMARK    4  A    between atoms: S_6  and  C_8
REMARK    5  A    between atoms: C_8  and  C_9
REMARK    6  A    between atoms: C_11  and  C_12
REMARK                            x       y       z     vdW  Elec       q    Type
REMARK                         _______ _______ _______ _____ _____    ______ ____
ROOT
ATOM      1  C   UNL     1     -66.489 -41.270 -70.404  0.00  0.00    +0.000 A 
ATOM      2  C   UNL     1     -66.474 -41.855 -71.622  0.00  0.00    +0.000 A 
ATOM      3  N   UNL     1     -65.321 -42.295 -72.241  0.00  0.00    +0.000 N 
ATOM      4  C   UNL     1     -64.038 -42.053 -71.721  0.00  0.00    +0.000 A 
ATOM      5  C   UNL     1     -62.889 -42.506 -72.395  0.00  0.00    +0.000 A 
ATOM      6 BR   UNL     1     -63.026 -43.407 -74.064  0.00  0.00    +0.000 Br
ATOM      7  C   UNL     1     -61.618 -42.315 -71.859  0.00  0.00    +0.000 A 
ATOM      8  C   UNL     1     -61.480 -41.668 -70.636  0.00  0.00    +0.000 A 
ATOM      9  C   UNL     1     -62.607 -41.226 -69.932  0.00  0.00    +0.000 A 
ATOM     10 CL   UNL     1     -62.272 -40.431 -68.432  0.00  0.00    +0.000 Cl
ATOM     11  C   UNL     1     -63.895 -41.440 -70.463  0.00  0.00    +0.000 A 
ATOM     12  C   UNL     1     -65.146 -41.020 -69.772  0.00  0.00    +0.000 A 
ATOM     13  O   UNL     1     -65.081 -40.426 -68.700  0.00  0.00    +0.000 OA
ATOM     14  H   UNL     1     -65.373 -42.386 -73.256  0.00  0.00    +0.000 HD
ENDROOT
BRANCH   1  16
ATOM     15  C   UNL     1     -68.393 -41.777 -68.702  0.00  0.00    +0.000 C 
ATOM     16  C   UNL     1     -67.734 -40.828 -69.682  0.00  0.00    +0.000 C 
ATOM     17  O   UNL     1     -68.240 -39.722 -69.877  0.00  0.00    +0.000 OA
ENDBRANCH   1  16
BRANCH   2  18
ATOM     18  S   UNL     1     -67.981 -41.952 -72.648  0.00  0.00    +0.000 S 
ATOM     19  O   UNL     1     -68.137 -40.550 -73.173  0.00  0.00    +0.000 OA
BRANCH  18  20
ATOM     20  C   UNL     1     -67.331 -42.939 -74.044  0.00  0.00    +0.000 C 
BRANCH  20  21
ATOM     21  C   UNL     1     -68.206 -44.114 -74.330  0.00  0.00    +0.000 A 
ATOM     22  C   UNL     1     -68.397 -44.815 -75.550  0.00  0.00    +0.000 A 
ATOM     23  C   UNL     1     -69.275 -45.824 -75.235  0.00  0.00    +0.000 A 
ATOM     24  C   UNL     1     -69.920 -46.911 -75.996  0.00  0.00    +0.000 C 
ATOM     25  O   UNL     1     -69.581 -45.749 -73.913  0.00  0.00    +0.000 OA
ATOM     26  N   UNL     1     -68.908 -44.685 -73.339  0.00  0.00    +0.000 NA
ENDBRANCH  20  21
ENDBRANCH  18  20
ENDBRANCH   2  18
TORSDOF 4
ENDMDL
