=
 OpenBabel09172513033D

 28 31  0  0  1  0  0  0  0  0999 V2000
  -55.8690  -42.7780  -76.8260 C   0  0  2  0  0  3  0  0  0  0  0  0
  -54.5580  -43.1630  -76.4870 N   0  0  0  0  0  0  0  0  0  0  0  0
  -53.5340  -42.1880  -76.3380 C   0  0  0  0  0  0  0  0  0  0  0  0
  -52.3360  -42.4330  -75.6390 C   0  0  0  0  0  0  0  0  0  0  0  0
  -52.0750  -44.0480  -74.6810 Br  0  0  0  0  0  0  0  0  0  0  0  0
  -51.3070  -41.4820  -75.6090 C   0  0  0  0  0  3  0  0  0  0  0  0
  -51.4780  -40.2550  -76.2600 C   0  0  0  0  0  3  0  0  0  0  0  0
  -52.6570  -39.9880  -76.9570 C   0  0  0  0  0  0  0  0  0  0  0  0
  -52.8000  -38.4200  -77.6650 Cl  0  0  0  0  0  0  0  0  0  0  0  0
  -53.6660  -40.9630  -77.0100 C   0  0  0  0  0  0  0  0  0  0  0  0
  -54.9080  -40.8050  -77.7910 C   0  0  0  0  0  0  0  0  0  0  0  0
  -54.9430  -40.1410  -78.8200 O   0  0  0  0  0  0  0  0  0  0  0  0
  -56.1250  -41.5530  -77.3350 C   0  0  2  0  0  3  0  0  0  0  0  0
  -54.5410  -43.8950  -75.7650 H   0  0  0  0  0  0  0  0  0  0  0  0
  -57.1230  -43.8720  -76.1070 S   0  0  2  0  0  0  0  0  0  0  0  0
  -57.8780  -44.4000  -77.2960 O   0  0  0  0  0  0  0  0  0  0  0  0
  -58.2870  -42.8900  -75.1160 C   0  0  0  0  0  2  0  0  0  0  0  0
  -56.0770  -40.9370  -70.9310 C   0  0  0  0  0  1  0  0  0  0  0  0
  -56.8890  -41.3970  -72.0720 C   0  0  0  0  0  0  0  0  0  0  0  0
  -56.6310  -42.1170  -73.2150 C   0  0  0  0  0  3  0  0  0  0  0  0
  -57.8940  -42.2780  -73.8260 C   0  0  0  0  0  0  0  0  0  0  0  0
  -58.8430  -41.6310  -73.1260 N   0  0  0  0  0  0  0  0  0  0  0  0
  -58.2090  -41.0830  -72.0300 O   0  0  0  0  0  0  0  0  0  0  0  0
  -57.3740  -40.7390  -77.3660 C   0  0  0  0  0  0  0  0  0  0  0  0
  -57.5750  -39.8790  -76.5260 O   0  0  0  0  0  0  0  0  0  0  0  0
  -58.3400  -40.9610  -78.4580 C   0  0  0  0  0  3  0  0  0  0  0  0
  -59.6300  -40.1830  -78.4760 C   0  0  0  0  0  2  0  0  0  0  0  0
  -59.6570  -41.6570  -78.2100 C   0  0  0  0  0  2  0  0  0  0  0  0
  1  2  1  0  0  0  0
  1 15  1  1  0  0  0
  2  3  1  0  0  0  0
  2 14  1  0  0  0  0
  3  4  1  0  0  0  0
  4  6  2  0  0  0  0
  4  5  1  0  0  0  0
  7  6  1  0  0  0  0
  8  7  2  0  0  0  0
  9  8  1  0  0  0  0
 10  8  1  0  0  0  0
 10  3  2  0  0  0  0
 11 13  1  0  0  0  0
 11 10  1  0  0  0  0
 12 11  2  0  0  0  0
 13 24  1  1  0  0  0
 13  1  1  0  0  0  0
 15 16  2  6  0  0  0
 15 17  1  0  0  0  0
 17 21  1  0  0  0  0
 19 23  1  0  0  0  0
 19 18  1  0  0  0  0
 20 19  2  0  0  0  0
 21 20  1  0  0  0  0
 21 22  2  0  0  0  0
 22 23  1  0  0  0  0
 24 25  2  0  0  0  0
 26 28  1  0  0  0  0
 26 24  1  0  0  0  0
 27 26  1  0  0  0  0
 27 28  1  0  0  0  0
M  END
>  <MODEL>
1

>  <REMARK>
 VINA RESULT:    -7.428      0.000      0.000
 INTER + INTRA:         -10.508
 INTER:                  -9.599
 INTRA:                  -0.910
 UNBOUND:                -0.910
  Name = 
  6 active torsions:
  status: ('A' for Active; 'I' for Inactive)
    1  A    between atoms: C_1  and  C_2
    2  A    between atoms: C_4  and  C_5
    3  A    between atoms: C_5  and  S_6
    4  A    between atoms: S_6  and  C_8
    5  A    between atoms: C_20  and  C_21
    6  A    between atoms: C_21  and  C_23
                            x       y       z     vdW  Elec       q    Type
                         _______ _______ _______ _____ _____    ______ ____

>  <TORSDO>
F 5

$$$$
