REMARK VINA RESULT:    -5.220     22.678     26.121
REMARK INTER + INTRA:          -7.787
REMARK INTER:                  -6.769
REMARK INTRA:                  -1.019
REMARK UNBOUND:                -1.042
REMARK  Name = 
REMARK  8 active torsions:
REMARK  status: ('A' for Active; 'I' for Inactive)
REMARK    1  A    between atoms: C_1  and  C_2
REMARK    2  A    between atoms: C_4  and  C_5
REMARK    3  A    between atoms: C_5  and  S_6
REMARK    4  A    between atoms: S_6  and  C_8
REMARK    5  A    between atoms: C_20  and  C_21
REMARK    6  A    between atoms: C_21  and  C_23
REMARK    7  A    between atoms: C_23  and  C_24
REMARK    8  A    between atoms: C_23  and  C_25
REMARK                            x       y       z     vdW  Elec       q    Type
REMARK                         _______ _______ _______ _____ _____    ______ ____
ROOT
ATOM      1  C   UNL     1     -67.881 -34.841 -85.217  0.00  0.00    +0.000 A 
ATOM      2  N   UNL     1     -68.559 -33.740 -84.701  0.00  0.00    +0.000 N 
ATOM      3  C   UNL     1     -68.338 -32.439 -85.193  0.00  0.00    +0.000 A 
ATOM      4  C   UNL     1     -69.268 -31.399 -85.006  0.00  0.00    +0.000 A 
ATOM      5 BR   UNL     1     -70.959 -31.734 -84.215  0.00  0.00    +0.000 Br
ATOM      6  C   UNL     1     -68.988 -30.099 -85.436  0.00  0.00    +0.000 A 
ATOM      7  C   UNL     1     -67.778 -29.820 -86.064  0.00  0.00    +0.000 A 
ATOM      8  C   UNL     1     -66.838 -30.847 -86.267  0.00  0.00    +0.000 A 
ATOM      9 CL   UNL     1     -65.406 -30.395 -87.120  0.00  0.00    +0.000 Cl
ATOM     10  C   UNL     1     -67.117 -32.157 -85.827  0.00  0.00    +0.000 A 
ATOM     11  C   UNL     1     -66.179 -33.301 -85.965  0.00  0.00    +0.000 A 
ATOM     12  O   UNL     1     -64.973 -33.098 -86.070  0.00  0.00    +0.000 OA
ATOM     13  C   UNL     1     -66.749 -34.717 -85.949  0.00  0.00    +0.000 A 
ATOM     14  H   UNL     1     -69.518 -33.949 -84.390  0.00  0.00    +0.000 HD
ENDROOT
BRANCH   1  15
ATOM     15  S   UNL     1     -68.826 -36.391 -84.964  0.00  0.00    +0.000 S 
ATOM     16  O   UNL     1     -70.021 -36.234 -85.865  0.00  0.00    +0.000 OA
BRANCH  15  17
ATOM     17  C   UNL     1     -69.387 -36.261 -83.233  0.00  0.00    +0.000 C 
BRANCH  17  21
ATOM     18  C   UNL     1     -65.329 -36.358 -80.020  0.00  0.00    +0.000 C 
ATOM     19  C   UNL     1     -66.549 -36.504 -80.843  0.00  0.00    +0.000 A 
ATOM     20  C   UNL     1     -67.185 -35.733 -81.789  0.00  0.00    +0.000 A 
ATOM     21  C   UNL     1     -68.309 -36.504 -82.203  0.00  0.00    +0.000 A 
ATOM     22  N   UNL     1     -68.344 -37.661 -81.518  0.00  0.00    +0.000 NA
ATOM     23  O   UNL     1     -67.247 -37.657 -80.678  0.00  0.00    +0.000 OA
ENDBRANCH  17  21
ENDBRANCH  15  17
ENDBRANCH   1  15
BRANCH  13  24
ATOM     24  C   UNL     1     -66.012 -35.755 -86.766  0.00  0.00    +0.000 C 
ATOM     25  O   UNL     1     -65.310 -36.597 -86.208  0.00  0.00    +0.000 OA
BRANCH  24  26
ATOM     26  C   UNL     1     -66.078 -35.726 -88.293  0.00  0.00    +0.000 C 
ATOM     27  C   UNL     1     -64.824 -36.323 -88.926  0.00  0.00    +0.000 C 
ATOM     28  C   UNL     1     -67.328 -36.433 -88.824  0.00  0.00    +0.000 C 
ENDBRANCH  24  26
ENDBRANCH  13  24
TORSDOF 5
