REMARK VINA RESULT:    -5.149      3.810      6.795
REMARK INTER + INTRA:          -7.324
REMARK INTER:                  -6.356
REMARK INTRA:                  -0.968
REMARK UNBOUND:                -0.971
REMARK  Name = 
REMARK  6 active torsions:
REMARK  status: ('A' for Active; 'I' for Inactive)
REMARK    1  A    between atoms: C_1  and  C_2
REMARK    2  A    between atoms: C_2  and  C_4
REMARK    3  A    between atoms: C_5  and  S_6
REMARK    4  A    between atoms: S_6  and  C_8
REMARK    5  A    between atoms: C_8  and  C_9
REMARK    6  A    between atoms: C_11  and  C_12
REMARK                            x       y       z     vdW  Elec       q    Type
REMARK                         _______ _______ _______ _____ _____    ______ ____
ROOT
ATOM      1  C   UNL     1     -57.966 -38.507 -62.133  0.00  0.00    +0.000 A 
ATOM      2  C   UNL     1     -58.625 -39.674 -62.310  0.00  0.00    +0.000 A 
ATOM      3  N   UNL     1     -58.088 -40.754 -62.985  0.00  0.00    +0.000 N 
ATOM      4  C   UNL     1     -56.848 -40.702 -63.646  0.00  0.00    +0.000 A 
ATOM      5  C   UNL     1     -56.333 -41.840 -64.297  0.00  0.00    +0.000 A 
ATOM      6 BR   UNL     1     -57.319 -43.462 -64.359  0.00  0.00    +0.000 Br
ATOM      7  C   UNL     1     -55.084 -41.811 -64.911  0.00  0.00    +0.000 A 
ATOM      8  C   UNL     1     -54.330 -40.641 -64.877  0.00  0.00    +0.000 A 
ATOM      9  C   UNL     1     -54.808 -39.505 -64.213  0.00  0.00    +0.000 A 
ATOM     10 CL   UNL     1     -53.761 -38.130 -64.262  0.00  0.00    +0.000 Cl
ATOM     11  C   UNL     1     -56.062 -39.540 -63.570  0.00  0.00    +0.000 A 
ATOM     12  C   UNL     1     -56.631 -38.386 -62.819  0.00  0.00    +0.000 A 
ATOM     13  O   UNL     1     -56.032 -37.318 -62.789  0.00  0.00    +0.000 OA
ATOM     14  H   UNL     1     -58.761 -41.421 -63.360  0.00  0.00    +0.000 HD
ENDROOT
BRANCH   1  16
ATOM     15  C   UNL     1     -58.239 -37.293 -59.853  0.00  0.00    +0.000 C 
ATOM     16  C   UNL     1     -58.495 -37.338 -61.343  0.00  0.00    +0.000 C 
ATOM     17  O   UNL     1     -59.152 -36.442 -61.871  0.00  0.00    +0.000 OA
ENDBRANCH   1  16
BRANCH   2  18
ATOM     18  S   UNL     1     -60.366 -39.867 -61.805  0.00  0.00    +0.000 S 
ATOM     19  O   UNL     1     -60.935 -40.781 -62.857  0.00  0.00    +0.000 OA
BRANCH  18  20
ATOM     20  C   UNL     1     -60.131 -40.900 -60.315  0.00  0.00    +0.000 C 
BRANCH  20  21
ATOM     21  C   UNL     1     -60.233 -42.355 -60.631  0.00  0.00    +0.000 A 
ATOM     22  C   UNL     1     -61.309 -43.251 -60.392  0.00  0.00    +0.000 A 
ATOM     23  C   UNL     1     -60.897 -44.441 -60.939  0.00  0.00    +0.000 A 
ATOM     24  C   UNL     1     -61.492 -45.785 -61.059  0.00  0.00    +0.000 C 
ATOM     25  O   UNL     1     -59.660 -44.276 -61.478  0.00  0.00    +0.000 OA
ATOM     26  N   UNL     1     -59.243 -42.969 -61.292  0.00  0.00    +0.000 NA
ENDBRANCH  20  21
ENDBRANCH  18  20
ENDBRANCH   2  18
TORSDOF 4
