REMARK VINA RESULT:    -6.998      0.000      0.000
REMARK INTER + INTRA:         -10.097
REMARK INTER:                  -9.043
REMARK INTRA:                  -1.054
REMARK UNBOUND:                -1.054
REMARK  Name = 
REMARK  8 active torsions:
REMARK  status: ('A' for Active; 'I' for Inactive)
REMARK    1  A    between atoms: C_1  and  C_2
REMARK    2  A    between atoms: C_4  and  C_5
REMARK    3  A    between atoms: C_5  and  S_6
REMARK    4  A    between atoms: S_6  and  C_8
REMARK    5  A    between atoms: C_20  and  C_21
REMARK    6  A    between atoms: C_21  and  C_23
REMARK    7  A    between atoms: C_23  and  C_24
REMARK    8  A    between atoms: C_23  and  C_25
REMARK                            x       y       z     vdW  Elec       q    Type
REMARK                         _______ _______ _______ _____ _____    ______ ____
ROOT
ATOM      1  C   UNL     1     -55.654 -42.299 -77.340  0.00  0.00    +0.000 A 
ATOM      2  N   UNL     1     -54.938 -41.109 -77.252  0.00  0.00    +0.000 N 
ATOM      3  C   UNL     1     -53.593 -41.085 -76.835  0.00  0.00    +0.000 A 
ATOM      4  C   UNL     1     -52.736 -40.006 -77.126  0.00  0.00    +0.000 A 
ATOM      5 BR   UNL     1     -53.304 -38.585 -78.246  0.00  0.00    +0.000 Br
ATOM      6  C   UNL     1     -51.429 -39.973 -76.632  0.00  0.00    +0.000 A 
ATOM      7  C   UNL     1     -50.957 -41.019 -75.845  0.00  0.00    +0.000 A 
ATOM      8  C   UNL     1     -51.794 -42.110 -75.548  0.00  0.00    +0.000 A 
ATOM      9 CL   UNL     1     -51.075 -43.379 -74.624  0.00  0.00    +0.000 Cl
ATOM     10  C   UNL     1     -53.115 -42.140 -76.040  0.00  0.00    +0.000 A 
ATOM     11  C   UNL     1     -54.086 -43.229 -75.757  0.00  0.00    +0.000 A 
ATOM     12  O   UNL     1     -53.951 -43.928 -74.758  0.00  0.00    +0.000 OA
ATOM     13  C   UNL     1     -55.252 -43.434 -76.720  0.00  0.00    +0.000 A 
ATOM     14  H   UNL     1     -55.203 -40.409 -77.959  0.00  0.00    +0.000 HD
ENDROOT
BRANCH   1  15
ATOM     15  S   UNL     1     -57.029 -42.168 -78.544  0.00  0.00    +0.000 S 
ATOM     16  O   UNL     1     -56.413 -41.457 -79.719  0.00  0.00    +0.000 OA
BRANCH  15  17
ATOM     17  C   UNL     1     -58.195 -41.027 -77.726  0.00  0.00    +0.000 C 
BRANCH  17  21
ATOM     18  C   UNL     1     -57.967 -40.880 -72.556  0.00  0.00    +0.000 C 
ATOM     19  C   UNL     1     -58.157 -41.086 -74.008  0.00  0.00    +0.000 A 
ATOM     20  C   UNL     1     -57.800 -40.396 -75.145  0.00  0.00    +0.000 A 
ATOM     21  C   UNL     1     -58.284 -41.188 -76.226  0.00  0.00    +0.000 A 
ATOM     22  N   UNL     1     -58.911 -42.277 -75.748  0.00  0.00    +0.000 NA
ATOM     23  O   UNL     1     -58.826 -42.210 -74.371  0.00  0.00    +0.000 OA
ENDBRANCH  17  21
ENDBRANCH  15  17
ENDBRANCH   1  15
BRANCH  13  24
ATOM     24  C   UNL     1     -55.763 -44.849 -76.877  0.00  0.00    +0.000 C 
ATOM     25  O   UNL     1     -56.947 -45.107 -76.662  0.00  0.00    +0.000 OA
BRANCH  24  26
ATOM     26  C   UNL     1     -54.802 -45.981 -77.238  0.00  0.00    +0.000 C 
ATOM     27  C   UNL     1     -54.752 -47.051 -76.150  0.00  0.00    +0.000 C 
ATOM     28  C   UNL     1     -55.146 -46.615 -78.589  0.00  0.00    +0.000 C 
ENDBRANCH  24  26
ENDBRANCH  13  24
TORSDOF 5
