REMARK  Name = 
REMARK  6 active torsions:
REMARK  status: ('A' for Active; 'I' for Inactive)
REMARK    1  A    between atoms: C_1  and  C_2
REMARK    2  A    between atoms: C_2  and  C_4
REMARK    3  A    between atoms: C_5  and  S_6
REMARK    4  A    between atoms: S_6  and  C_8
REMARK    5  A    between atoms: C_8  and  C_9
REMARK    6  A    between atoms: C_11  and  C_12
REMARK                            x       y       z     vdW  Elec       q    Type
REMARK                         _______ _______ _______ _____ _____    ______ ____
ROOT
ATOM      1  C   UNL     1       3.084  -0.937  -0.724  0.00  0.00    +0.000 A 
ATOM      2  C   UNL     1       2.718  -1.161  -2.005  0.00  0.00    +0.000 A 
ATOM      3  N   UNL     1       3.387  -2.026  -2.849  0.00  0.00    +0.000 N 
ATOM      4  C   UNL     1       4.600  -2.641  -2.501  0.00  0.00    +0.000 A 
ATOM      5  C   UNL     1       5.269  -3.479  -3.413  0.00  0.00    +0.000 A 
ATOM      6 BR   UNL     1       4.602  -3.736  -5.174  0.00  0.00    +0.000 Br
ATOM      7  C   UNL     1       6.443  -4.136  -3.056  0.00  0.00    +0.000 A 
ATOM      8  C   UNL     1       6.959  -3.972  -1.774  0.00  0.00    +0.000 A 
ATOM      9  C   UNL     1       6.300  -3.162  -0.840  0.00  0.00    +0.000 A 
ATOM     10 CL   UNL     1       7.068  -3.050   0.705  0.00  0.00    +0.000 Cl
ATOM     11  C   UNL     1       5.104  -2.506  -1.196  0.00  0.00    +0.000 A 
ATOM     12  C   UNL     1       4.342  -1.630  -0.262  0.00  0.00    +0.000 A 
ATOM     13  O   UNL     1       4.759  -1.436   0.871  0.00  0.00    +0.000 OA
ATOM     14  H   UNL     1       3.259  -1.849  -3.848  0.00  0.00    +0.000 HD
ENDROOT
BRANCH   1  16
ATOM     15  C   UNL     1       2.526  -0.224   1.719  0.00  0.00    +0.000 C 
ATOM     16  C   UNL     1       2.354  -0.027   0.231  0.00  0.00    +0.000 C 
ATOM     17  O   UNL     1       1.607   0.867  -0.172  0.00  0.00    +0.000 OA
ENDBRANCH   1  16
BRANCH   2  18
ATOM     18  S   UNL     1       1.384  -0.199  -2.792  0.00  0.00    +0.000 S 
ATOM     19  O   UNL     1       2.067   0.445  -3.970  0.00  0.00    +0.000 OA
BRANCH  18  20
ATOM     20  C   UNL     1       0.389  -1.573  -3.478  0.00  0.00    +0.000 C 
BRANCH  20  21
ATOM     21  C   UNL     1      -0.849  -1.091  -4.161  0.00  0.00    +0.000 A 
ATOM     22  C   UNL     1      -1.051   0.037  -4.999  0.00  0.00    +0.000 A 
ATOM     23  C   UNL     1      -2.381  -0.015  -5.337  0.00  0.00    +0.000 A 
ATOM     24  C   UNL     1      -3.284   0.850  -6.118  0.00  0.00    +0.000 C 
ATOM     25  O   UNL     1      -2.935  -1.126  -4.785  0.00  0.00    +0.000 OA
ATOM     26  N   UNL     1      -1.979  -1.807  -4.054  0.00  0.00    +0.000 NA
ENDBRANCH  20  21
ENDBRANCH  18  20
ENDBRANCH   2  18
TORSDOF 4
