REMARK VINA RESULT:    -6.552      0.000      0.000
REMARK INTER + INTRA:          -9.014
REMARK INTER:                  -8.084
REMARK INTRA:                  -0.930
REMARK UNBOUND:                -0.930
REMARK  Name = 
REMARK  6 active torsions:
REMARK  status: ('A' for Active; 'I' for Inactive)
REMARK    1  A    between atoms: C_1  and  C_2
REMARK    2  A    between atoms: C_2  and  C_4
REMARK    3  A    between atoms: C_5  and  S_6
REMARK    4  A    between atoms: S_6  and  C_8
REMARK    5  A    between atoms: C_8  and  C_9
REMARK    6  A    between atoms: C_11  and  C_12
REMARK                            x       y       z     vdW  Elec       q    Type
REMARK                         _______ _______ _______ _____ _____    ______ ____
ROOT
ATOM      1  C   UNL     1     -56.268 -41.997 -62.624  0.00  0.00    +0.000 A 
ATOM      2  C   UNL     1     -55.954 -40.882 -63.323  0.00  0.00    +0.000 A 
ATOM      3  N   UNL     1     -54.805 -40.757 -64.086  0.00  0.00    +0.000 N 
ATOM      4  C   UNL     1     -53.733 -41.659 -63.943  0.00  0.00    +0.000 A 
ATOM      5  C   UNL     1     -52.477 -41.389 -64.511  0.00  0.00    +0.000 A 
ATOM      6 BR   UNL     1     -52.158 -39.771 -65.451  0.00  0.00    +0.000 Br
ATOM      7  C   UNL     1     -51.428 -42.297 -64.383  0.00  0.00    +0.000 A 
ATOM      8  C   UNL     1     -51.629 -43.490 -63.687  0.00  0.00    +0.000 A 
ATOM      9  C   UNL     1     -52.886 -43.795 -63.142  0.00  0.00    +0.000 A 
ATOM     10 CL   UNL     1     -52.993 -45.264 -62.247  0.00  0.00    +0.000 Cl
ATOM     11  C   UNL     1     -53.946 -42.889 -63.299  0.00  0.00    +0.000 A 
ATOM     12  C   UNL     1     -55.334 -43.154 -62.829  0.00  0.00    +0.000 A 
ATOM     13  O   UNL     1     -55.730 -44.301 -62.649  0.00  0.00    +0.000 OA
ATOM     14  H   UNL     1     -54.511 -39.788 -64.236  0.00  0.00    +0.000 HD
ENDROOT
BRANCH   1  16
ATOM     15  C   UNL     1     -58.796 -42.522 -62.291  0.00  0.00    +0.000 C 
ATOM     16  C   UNL     1     -57.445 -42.149 -61.711  0.00  0.00    +0.000 C 
ATOM     17  O   UNL     1     -57.330 -41.985 -60.496  0.00  0.00    +0.000 OA
ENDBRANCH   1  16
BRANCH   2  18
ATOM     18  S   UNL     1     -56.950 -39.359 -63.200  0.00  0.00    +0.000 S 
ATOM     19  O   UNL     1     -56.652 -38.864 -61.810  0.00  0.00    +0.000 OA
BRANCH  18  20
ATOM     20  C   UNL     1     -55.951 -38.325 -64.337  0.00  0.00    +0.000 C 
BRANCH  20  21
ATOM     21  C   UNL     1     -55.204 -37.217 -63.670  0.00  0.00    +0.000 A 
ATOM     22  C   UNL     1     -55.586 -35.883 -63.376  0.00  0.00    +0.000 A 
ATOM     23  C   UNL     1     -54.528 -35.361 -62.672  0.00  0.00    +0.000 A 
ATOM     24  C   UNL     1     -54.227 -34.057 -62.053  0.00  0.00    +0.000 C 
ATOM     25  O   UNL     1     -53.574 -36.320 -62.537  0.00  0.00    +0.000 OA
ATOM     26  N   UNL     1     -53.993 -37.481 -63.151  0.00  0.00    +0.000 NA
ENDBRANCH  20  21
ENDBRANCH  18  20
ENDBRANCH   2  18
TORSDOF 4
