REMARK VINA RESULT:    -5.692     20.935     24.941
REMARK INTER + INTRA:          -8.226
REMARK INTER:                  -7.201
REMARK INTRA:                  -1.025
REMARK UNBOUND:                -0.870
REMARK  Name = 
REMARK  8 active torsions:
REMARK  status: ('A' for Active; 'I' for Inactive)
REMARK    1  A    between atoms: C_1  and  C_2
REMARK    2  A    between atoms: C_4  and  C_5
REMARK    3  A    between atoms: C_5  and  S_6
REMARK    4  A    between atoms: S_6  and  C_8
REMARK    5  A    between atoms: C_20  and  C_21
REMARK    6  A    between atoms: C_21  and  C_23
REMARK    7  A    between atoms: C_23  and  C_24
REMARK    8  A    between atoms: C_23  and  C_25
REMARK                            x       y       z     vdW  Elec       q    Type
REMARK                         _______ _______ _______ _____ _____    ______ ____
ROOT
ATOM      1  C   UNL     1     -64.997 -47.356 -54.512  0.00  0.00    +0.000 A 
ATOM      2  N   UNL     1     -65.771 -48.183 -55.320  0.00  0.00    +0.000 N 
ATOM      3  C   UNL     1     -66.345 -49.371 -54.827  0.00  0.00    +0.000 A 
ATOM      4  C   UNL     1     -67.439 -49.993 -55.458  0.00  0.00    +0.000 A 
ATOM      5 BR   UNL     1     -68.313 -49.172 -56.928  0.00  0.00    +0.000 Br
ATOM      6  C   UNL     1     -67.938 -51.213 -54.994  0.00  0.00    +0.000 A 
ATOM      7  C   UNL     1     -67.356 -51.826 -53.889  0.00  0.00    +0.000 A 
ATOM      8  C   UNL     1     -66.266 -51.218 -53.239  0.00  0.00    +0.000 A 
ATOM      9 CL   UNL     1     -65.674 -52.037 -51.839  0.00  0.00    +0.000 Cl
ATOM     10  C   UNL     1     -65.757 -49.991 -53.712  0.00  0.00    +0.000 A 
ATOM     11  C   UNL     1     -64.593 -49.285 -53.118  0.00  0.00    +0.000 A 
ATOM     12  O   UNL     1     -63.756 -49.913 -52.476  0.00  0.00    +0.000 OA
ATOM     13  C   UNL     1     -64.457 -47.783 -53.345  0.00  0.00    +0.000 A 
ATOM     14  H   UNL     1     -66.319 -47.677 -56.030  0.00  0.00    +0.000 HD
ENDROOT
BRANCH   1  15
ATOM     15  S   UNL     1     -65.003 -45.627 -55.117  0.00  0.00    +0.000 S 
ATOM     16  O   UNL     1     -66.033 -44.948 -54.255  0.00  0.00    +0.000 OA
BRANCH  15  17
ATOM     17  C   UNL     1     -65.674 -45.777 -56.808  0.00  0.00    +0.000 C 
BRANCH  17  21
ATOM     18  C   UNL     1     -61.542 -46.658 -59.800  0.00  0.00    +0.000 C 
ATOM     19  C   UNL     1     -62.834 -46.419 -59.119  0.00  0.00    +0.000 A 
ATOM     20  C   UNL     1     -63.238 -46.304 -57.809  0.00  0.00    +0.000 A 
ATOM     21  C   UNL     1     -64.637 -46.043 -57.874  0.00  0.00    +0.000 A 
ATOM     22  N   UNL     1     -65.038 -46.027 -59.157  0.00  0.00    +0.000 NA
ATOM     23  O   UNL     1     -63.914 -46.258 -59.926  0.00  0.00    +0.000 OA
ENDBRANCH  17  21
ENDBRANCH  15  17
ENDBRANCH   1  15
BRANCH  13  24
ATOM     24  C   UNL     1     -63.791 -46.987 -52.245  0.00  0.00    +0.000 C 
ATOM     25  O   UNL     1     -62.690 -46.471 -52.434  0.00  0.00    +0.000 OA
BRANCH  24  26
ATOM     26  C   UNL     1     -64.448 -46.871 -50.869  0.00  0.00    +0.000 C 
ATOM     27  C   UNL     1     -63.860 -45.720 -50.056  0.00  0.00    +0.000 C 
ATOM     28  C   UNL     1     -65.968 -46.726 -50.971  0.00  0.00    +0.000 C 
ENDBRANCH  24  26
ENDBRANCH  13  24
TORSDOF 5
