REMARK VINA RESULT:    -5.767      3.117      5.715
REMARK INTER + INTRA:          -8.608
REMARK INTER:                  -7.777
REMARK INTRA:                  -0.831
REMARK UNBOUND:                -1.155
REMARK  Name = 
REMARK  6 active torsions:
REMARK  status: ('A' for Active; 'I' for Inactive)
REMARK    1  A    between atoms: C_1  and  C_2
REMARK    2  A    between atoms: C_4  and  C_5
REMARK    3  A    between atoms: C_5  and  S_6
REMARK    4  A    between atoms: S_6  and  C_8
REMARK    5  A    between atoms: C_20  and  C_21
REMARK    6  A    between atoms: C_21  and  C_23
REMARK                            x       y       z     vdW  Elec       q    Type
REMARK                         _______ _______ _______ _____ _____    ______ ____
ROOT
ATOM      1  C   UNL     1     -56.790 -41.198 -61.539  0.00  0.00    +0.000 A 
ATOM      2  N   UNL     1     -56.683 -41.924 -60.337  0.00  0.00    +0.000 N 
ATOM      3  C   UNL     1     -55.641 -42.875 -60.156  0.00  0.00    +0.000 A 
ATOM      4  C   UNL     1     -55.236 -43.338 -58.890  0.00  0.00    +0.000 A 
ATOM      5 BR   UNL     1     -55.941 -42.584 -57.299  0.00  0.00    +0.000 Br
ATOM      6  C   UNL     1     -54.280 -44.356 -58.763  0.00  0.00    +0.000 A 
ATOM      7  C   UNL     1     -53.696 -44.905 -59.910  0.00  0.00    +0.000 A 
ATOM      8  C   UNL     1     -54.080 -44.460 -61.175  0.00  0.00    +0.000 A 
ATOM      9 CL   UNL     1     -53.248 -45.149 -62.523  0.00  0.00    +0.000 Cl
ATOM     10  C   UNL     1     -55.063 -43.466 -61.291  0.00  0.00    +0.000 A 
ATOM     11  C   UNL     1     -55.594 -42.994 -62.584  0.00  0.00    +0.000 A 
ATOM     12  O   UNL     1     -55.654 -43.728 -63.563  0.00  0.00    +0.000 OA
ATOM     13  C   UNL     1     -56.139 -41.599 -62.654  0.00  0.00    +0.000 A 
ATOM     14  H   UNL     1     -56.856 -41.336 -59.510  0.00  0.00    +0.000 HD
ENDROOT
BRANCH   1  15
ATOM     15  S   UNL     1     -57.470 -39.537 -61.290  0.00  0.00    +0.000 S 
ATOM     16  O   UNL     1     -58.520 -39.404 -62.360  0.00  0.00    +0.000 OA
BRANCH  15  17
ATOM     17  C   UNL     1     -56.185 -38.298 -61.633  0.00  0.00    +0.000 C 
BRANCH  17  21
ATOM     18  C   UNL     1     -57.789 -33.568 -62.758  0.00  0.00    +0.000 C 
ATOM     19  C   UNL     1     -57.184 -34.902 -62.588  0.00  0.00    +0.000 A 
ATOM     20  C   UNL     1     -57.359 -35.938 -61.702  0.00  0.00    +0.000 A 
ATOM     21  C   UNL     1     -56.512 -36.962 -62.181  0.00  0.00    +0.000 A 
ATOM     22  N   UNL     1     -55.818 -36.538 -63.252  0.00  0.00    +0.000 NA
ATOM     23  O   UNL     1     -56.243 -35.250 -63.503  0.00  0.00    +0.000 OA
ENDBRANCH  17  21
ENDBRANCH  15  17
ENDBRANCH   1  15
BRANCH  13  24
ATOM     24  C   UNL     1     -55.716 -40.849 -63.871  0.00  0.00    +0.000 C 
ATOM     25  O   UNL     1     -54.562 -40.477 -63.998  0.00  0.00    +0.000 OA
BRANCH  24  26
ATOM     26  C   UNL     1     -56.705 -40.609 -64.938  0.00  0.00    +0.000 C 
ATOM     27  C   UNL     1     -57.880 -41.541 -65.083  0.00  0.00    +0.000 C 
ATOM     28  C   UNL     1     -56.809 -41.529 -66.131  0.00  0.00    +0.000 C 
ENDBRANCH  24  26
ENDBRANCH  13  24
TORSDOF 5
