REMARK VINA RESULT:    -5.599     13.940     14.820
REMARK INTER + INTRA:          -7.873
REMARK INTER:                  -7.257
REMARK INTRA:                  -0.616
REMARK UNBOUND:                -0.965
REMARK  Name = 
REMARK  6 active torsions:
REMARK  status: ('A' for Active; 'I' for Inactive)
REMARK    1  A    between atoms: C_1  and  C_2
REMARK    2  A    between atoms: C_2  and  C_4
REMARK    3  A    between atoms: C_5  and  S_6
REMARK    4  A    between atoms: S_6  and  C_8
REMARK    5  A    between atoms: C_8  and  C_9
REMARK    6  A    between atoms: C_11  and  C_12
REMARK                            x       y       z     vdW  Elec       q    Type
REMARK                         _______ _______ _______ _____ _____    ______ ____
ROOT
ATOM      1  C   UNL     1     -57.366 -41.833 -78.936  0.00  0.00    +0.000 A 
ATOM      2  C   UNL     1     -56.953 -42.087 -77.672  0.00  0.00    +0.000 A 
ATOM      3  N   UNL     1     -55.626 -42.113 -77.299  0.00  0.00    +0.000 N 
ATOM      4  C   UNL     1     -54.572 -42.010 -78.223  0.00  0.00    +0.000 A 
ATOM      5  C   UNL     1     -53.231 -42.049 -77.791  0.00  0.00    +0.000 A 
ATOM      6 BR   UNL     1     -52.802 -42.308 -75.958  0.00  0.00    +0.000 Br
ATOM      7  C   UNL     1     -52.181 -41.895 -78.694  0.00  0.00    +0.000 A 
ATOM      8  C   UNL     1     -52.459 -41.698 -80.042  0.00  0.00    +0.000 A 
ATOM      9  C   UNL     1     -53.782 -41.631 -80.492  0.00  0.00    +0.000 A 
ATOM     10 CL   UNL     1     -53.965 -41.393 -82.196  0.00  0.00    +0.000 Cl
ATOM     11  C   UNL     1     -54.848 -41.764 -79.578  0.00  0.00    +0.000 A 
ATOM     12  C   UNL     1     -56.281 -41.676 -79.970  0.00  0.00    +0.000 A 
ATOM     13  O   UNL     1     -56.580 -41.516 -81.148  0.00  0.00    +0.000 OA
ATOM     14  H   UNL     1     -55.415 -42.636 -76.448  0.00  0.00    +0.000 HD
ENDROOT
BRANCH   1  16
ATOM     15  C   UNL     1     -59.455 -42.938 -80.026  0.00  0.00    +0.000 C 
ATOM     16  C   UNL     1     -58.806 -41.739 -79.367  0.00  0.00    +0.000 C 
ATOM     17  O   UNL     1     -59.461 -40.711 -79.222  0.00  0.00    +0.000 OA
ENDBRANCH   1  16
BRANCH   2  18
ATOM     18  S   UNL     1     -58.137 -42.582 -76.368  0.00  0.00    +0.000 S 
ATOM     19  O   UNL     1     -57.353 -43.569 -75.546  0.00  0.00    +0.000 OA
BRANCH  18  20
ATOM     20  C   UNL     1     -58.173 -41.033 -75.397  0.00  0.00    +0.000 C 
BRANCH  20  21
ATOM     21  C   UNL     1     -57.916 -41.272 -73.945  0.00  0.00    +0.000 A 
ATOM     22  C   UNL     1     -56.681 -41.348 -73.250  0.00  0.00    +0.000 A 
ATOM     23  C   UNL     1     -57.033 -41.496 -71.931  0.00  0.00    +0.000 A 
ATOM     24  C   UNL     1     -56.283 -41.628 -70.666  0.00  0.00    +0.000 C 
ATOM     25  O   UNL     1     -58.389 -41.504 -71.832  0.00  0.00    +0.000 OA
ATOM     26  N   UNL     1     -58.946 -41.358 -73.090  0.00  0.00    +0.000 NA
ENDBRANCH  20  21
ENDBRANCH  18  20
ENDBRANCH   2  18
TORSDOF 4
