MODEL 1
REMARK VINA RESULT:    -6.666      0.000      0.000
REMARK INTER + INTRA:          -9.075
REMARK INTER:                  -8.224
REMARK INTRA:                  -0.850
REMARK UNBOUND:                -0.850
REMARK  Name = 
REMARK  6 active torsions:
REMARK  status: ('A' for Active; 'I' for Inactive)
REMARK    1  A    between atoms: C_1  and  C_2
REMARK    2  A    between atoms: C_2  and  C_4
REMARK    3  A    between atoms: C_5  and  S_6
REMARK    4  A    between atoms: S_6  and  C_8
REMARK    5  A    between atoms: C_8  and  C_9
REMARK    6  A    between atoms: C_11  and  C_12
REMARK                            x       y       z     vdW  Elec       q    Type
REMARK                         _______ _______ _______ _____ _____    ______ ____
ROOT
ATOM      1  C   UNL     1     -56.890 -40.804 -61.840  0.00  0.00    +0.000 A 
ATOM      2  C   UNL     1     -55.955 -41.562 -62.457  0.00  0.00    +0.000 A 
ATOM      3  N   UNL     1     -54.974 -41.036 -63.271  0.00  0.00    +0.000 N 
ATOM      4  C   UNL     1     -54.881 -39.669 -63.581  0.00  0.00    +0.000 A 
ATOM      5  C   UNL     1     -53.805 -39.169 -64.333  0.00  0.00    +0.000 A 
ATOM      6 BR   UNL     1     -52.466 -40.336 -65.017  0.00  0.00    +0.000 Br
ATOM      7  C   UNL     1     -53.678 -37.808 -64.593  0.00  0.00    +0.000 A 
ATOM      8  C   UNL     1     -54.630 -36.923 -64.094  0.00  0.00    +0.000 A 
ATOM      9  C   UNL     1     -55.698 -37.391 -63.319  0.00  0.00    +0.000 A 
ATOM     10 CL   UNL     1     -56.791 -36.173 -62.758  0.00  0.00    +0.000 Cl
ATOM     11  C   UNL     1     -55.812 -38.767 -63.036  0.00  0.00    +0.000 A 
ATOM     12  C   UNL     1     -56.899 -39.341 -62.202  0.00  0.00    +0.000 A 
ATOM     13  O   UNL     1     -57.840 -38.643 -61.838  0.00  0.00    +0.000 OA
ATOM     14  H   UNL     1     -54.535 -41.679 -63.929  0.00  0.00    +0.000 HD
ENDROOT
BRANCH   1  16
ATOM     15  C   UNL     1     -57.519 -41.433 -59.408  0.00  0.00    +0.000 C 
ATOM     16  C   UNL     1     -57.912 -41.319 -60.866  0.00  0.00    +0.000 C 
ATOM     17  O   UNL     1     -59.030 -41.683 -61.225  0.00  0.00    +0.000 OA
ENDBRANCH   1  16
BRANCH   2  18
ATOM     18  S   UNL     1     -56.014 -43.381 -62.371  0.00  0.00    +0.000 S 
ATOM     19  O   UNL     1     -55.718 -43.810 -63.784  0.00  0.00    +0.000 OA
BRANCH  18  20
ATOM     20  C   UNL     1     -54.485 -43.679 -61.427  0.00  0.00    +0.000 C 
BRANCH  20  21
ATOM     21  C   UNL     1     -53.403 -44.261 -62.275  0.00  0.00    +0.000 A 
ATOM     22  C   UNL     1     -52.397 -43.594 -63.022  0.00  0.00    +0.000 A 
ATOM     23  C   UNL     1     -51.616 -44.602 -63.529  0.00  0.00    +0.000 A 
ATOM     24  C   UNL     1     -50.400 -44.649 -64.363  0.00  0.00    +0.000 C 
ATOM     25  O   UNL     1     -52.120 -45.799 -63.127  0.00  0.00    +0.000 OA
ATOM     26  N   UNL     1     -53.236 -45.590 -62.335  0.00  0.00    +0.000 NA
ENDBRANCH  20  21
ENDBRANCH  18  20
ENDBRANCH   2  18
TORSDOF 4
ENDMDL
MODEL 2
REMARK VINA RESULT:    -6.375     14.235     15.388
REMARK INTER + INTRA:          -8.716
REMARK INTER:                  -7.930
REMARK INTRA:                  -0.786
REMARK UNBOUND:                -0.850
REMARK  Name = 
REMARK  6 active torsions:
REMARK  status: ('A' for Active; 'I' for Inactive)
REMARK    1  A    between atoms: C_1  and  C_2
REMARK    2  A    between atoms: C_2  and  C_4
REMARK    3  A    between atoms: C_5  and  S_6
REMARK    4  A    between atoms: S_6  and  C_8
REMARK    5  A    between atoms: C_8  and  C_9
REMARK    6  A    between atoms: C_11  and  C_12
REMARK                            x       y       z     vdW  Elec       q    Type
REMARK                         _______ _______ _______ _____ _____    ______ ____
ROOT
ATOM      1  C   UNL     1     -56.530 -42.179 -76.671  0.00  0.00    +0.000 A 
ATOM      2  C   UNL     1     -55.223 -42.152 -77.016  0.00  0.00    +0.000 A 
ATOM      3  N   UNL     1     -54.789 -42.000 -78.316  0.00  0.00    +0.000 N 
ATOM      4  C   UNL     1     -55.660 -41.908 -79.413  0.00  0.00    +0.000 A 
ATOM      5  C   UNL     1     -55.172 -41.653 -80.706  0.00  0.00    +0.000 A 
ATOM      6 BR   UNL     1     -53.304 -41.484 -81.029  0.00  0.00    +0.000 Br
ATOM      7  C   UNL     1     -56.036 -41.504 -81.787  0.00  0.00    +0.000 A 
ATOM      8  C   UNL     1     -57.410 -41.604 -81.585  0.00  0.00    +0.000 A 
ATOM      9  C   UNL     1     -57.925 -41.832 -80.303  0.00  0.00    +0.000 A 
ATOM     10 CL   UNL     1     -59.650 -41.919 -80.206  0.00  0.00    +0.000 Cl
ATOM     11  C   UNL     1     -57.050 -41.958 -79.206  0.00  0.00    +0.000 A 
ATOM     12  C   UNL     1     -57.515 -42.176 -77.811  0.00  0.00    +0.000 A 
ATOM     13  O   UNL     1     -58.698 -42.401 -77.577  0.00  0.00    +0.000 OA
ATOM     14  H   UNL     1     -53.838 -42.309 -78.518  0.00  0.00    +0.000 HD
ENDROOT
BRANCH   1  16
ATOM     15  C   UNL     1     -57.386 -40.939 -74.564  0.00  0.00    +0.000 C 
ATOM     16  C   UNL     1     -57.048 -42.240 -75.262  0.00  0.00    +0.000 C 
ATOM     17  O   UNL     1     -57.164 -43.303 -74.655  0.00  0.00    +0.000 OA
ENDBRANCH   1  16
BRANCH   2  18
ATOM     18  S   UNL     1     -53.918 -42.467 -75.783  0.00  0.00    +0.000 S 
ATOM     19  O   UNL     1     -53.959 -43.962 -75.601  0.00  0.00    +0.000 OA
BRANCH  18  20
ATOM     20  C   UNL     1     -52.455 -42.129 -76.813  0.00  0.00    +0.000 C 
BRANCH  20  21
ATOM     21  C   UNL     1     -51.723 -40.906 -76.368  0.00  0.00    +0.000 A 
ATOM     22  C   UNL     1     -50.485 -40.806 -75.680  0.00  0.00    +0.000 A 
ATOM     23  C   UNL     1     -50.235 -39.458 -75.610  0.00  0.00    +0.000 A 
ATOM     24  C   UNL     1     -49.138 -38.637 -75.066  0.00  0.00    +0.000 C 
ATOM     25  O   UNL     1     -51.256 -38.786 -76.205  0.00  0.00    +0.000 OA
ATOM     26  N   UNL     1     -52.188 -39.689 -76.687  0.00  0.00    +0.000 NA
ENDBRANCH  20  21
ENDBRANCH  18  20
ENDBRANCH   2  18
TORSDOF 4
ENDMDL
MODEL 3
REMARK VINA RESULT:    -6.320      1.798      2.424
REMARK INTER + INTRA:          -8.648
REMARK INTER:                  -7.873
REMARK INTRA:                  -0.775
REMARK UNBOUND:                -0.850
REMARK  Name = 
REMARK  6 active torsions:
REMARK  status: ('A' for Active; 'I' for Inactive)
REMARK    1  A    between atoms: C_1  and  C_2
REMARK    2  A    between atoms: C_2  and  C_4
REMARK    3  A    between atoms: C_5  and  S_6
REMARK    4  A    between atoms: S_6  and  C_8
REMARK    5  A    between atoms: C_8  and  C_9
REMARK    6  A    between atoms: C_11  and  C_12
REMARK                            x       y       z     vdW  Elec       q    Type
REMARK                         _______ _______ _______ _____ _____    ______ ____
ROOT
ATOM      1  C   UNL     1     -57.431 -40.598 -62.414  0.00  0.00    +0.000 A 
ATOM      2  C   UNL     1     -56.512 -41.454 -62.914  0.00  0.00    +0.000 A 
ATOM      3  N   UNL     1     -55.364 -41.040 -63.555  0.00  0.00    +0.000 N 
ATOM      4  C   UNL     1     -55.062 -39.690 -63.798  0.00  0.00    +0.000 A 
ATOM      5  C   UNL     1     -53.833 -39.313 -64.365  0.00  0.00    +0.000 A 
ATOM      6 BR   UNL     1     -52.556 -40.625 -64.886  0.00  0.00    +0.000 Br
ATOM      7  C   UNL     1     -53.507 -37.974 -64.555  0.00  0.00    +0.000 A 
ATOM      8  C   UNL     1     -54.410 -36.987 -64.170  0.00  0.00    +0.000 A 
ATOM      9  C   UNL     1     -55.631 -37.333 -63.578  0.00  0.00    +0.000 A 
ATOM     10 CL   UNL     1     -56.643 -35.999 -63.142  0.00  0.00    +0.000 Cl
ATOM     11  C   UNL     1     -55.949 -38.689 -63.365  0.00  0.00    +0.000 A 
ATOM     12  C   UNL     1     -57.211 -39.139 -62.722  0.00  0.00    +0.000 A 
ATOM     13  O   UNL     1     -58.106 -38.336 -62.475  0.00  0.00    +0.000 OA
ATOM     14  H   UNL     1     -54.911 -41.721 -64.164  0.00  0.00    +0.000 HD
ENDROOT
BRANCH   1  16
ATOM     15  C   UNL     1     -59.953 -41.187 -62.356  0.00  0.00    +0.000 C 
ATOM     16  C   UNL     1     -58.643 -40.999 -61.620  0.00  0.00    +0.000 C 
ATOM     17  O   UNL     1     -58.605 -41.136 -60.399  0.00  0.00    +0.000 OA
ENDBRANCH   1  16
BRANCH   2  18
ATOM     18  S   UNL     1     -56.800 -43.254 -62.903  0.00  0.00    +0.000 S 
ATOM     19  O   UNL     1     -57.243 -43.548 -64.311  0.00  0.00    +0.000 OA
BRANCH  18  20
ATOM     20  C   UNL     1     -55.075 -43.826 -62.791  0.00  0.00    +0.000 C 
BRANCH  20  21
ATOM     21  C   UNL     1     -54.664 -44.108 -61.384  0.00  0.00    +0.000 A 
ATOM     22  C   UNL     1     -54.913 -43.348 -60.211  0.00  0.00    +0.000 A 
ATOM     23  C   UNL     1     -54.400 -44.108 -59.190  0.00  0.00    +0.000 A 
ATOM     24  C   UNL     1     -54.328 -43.959 -57.724  0.00  0.00    +0.000 C 
ATOM     25  O   UNL     1     -53.865 -45.245 -59.709  0.00  0.00    +0.000 OA
ATOM     26  N   UNL     1     -54.034 -45.252 -61.083  0.00  0.00    +0.000 NA
ENDBRANCH  20  21
ENDBRANCH  18  20
ENDBRANCH   2  18
TORSDOF 4
ENDMDL
MODEL 4
REMARK VINA RESULT:    -6.316     13.908     15.267
REMARK INTER + INTRA:          -8.643
REMARK INTER:                  -8.032
REMARK INTRA:                  -0.611
REMARK UNBOUND:                -0.850
REMARK  Name = 
REMARK  6 active torsions:
REMARK  status: ('A' for Active; 'I' for Inactive)
REMARK    1  A    between atoms: C_1  and  C_2
REMARK    2  A    between atoms: C_2  and  C_4
REMARK    3  A    between atoms: C_5  and  S_6
REMARK    4  A    between atoms: S_6  and  C_8
REMARK    5  A    between atoms: C_8  and  C_9
REMARK    6  A    between atoms: C_11  and  C_12
REMARK                            x       y       z     vdW  Elec       q    Type
REMARK                         _______ _______ _______ _____ _____    ______ ____
ROOT
ATOM      1  C   UNL     1     -56.193 -42.716 -76.975  0.00  0.00    +0.000 A 
ATOM      2  C   UNL     1     -55.258 -43.434 -76.312  0.00  0.00    +0.000 A 
ATOM      3  N   UNL     1     -55.272 -44.811 -76.242  0.00  0.00    +0.000 N 
ATOM      4  C   UNL     1     -56.285 -45.600 -76.809  0.00  0.00    +0.000 A 
ATOM      5  C   UNL     1     -56.202 -47.003 -76.798  0.00  0.00    +0.000 A 
ATOM      6 BR   UNL     1     -54.742 -47.887 -75.956  0.00  0.00    +0.000 Br
ATOM      7  C   UNL     1     -57.175 -47.788 -77.410  0.00  0.00    +0.000 A 
ATOM      8  C   UNL     1     -58.248 -47.174 -78.050  0.00  0.00    +0.000 A 
ATOM      9  C   UNL     1     -58.342 -45.778 -78.099  0.00  0.00    +0.000 A 
ATOM     10 CL   UNL     1     -59.723 -45.162 -78.940  0.00  0.00    +0.000 Cl
ATOM     11  C   UNL     1     -57.344 -44.985 -77.500  0.00  0.00    +0.000 A 
ATOM     12  C   UNL     1     -57.356 -43.499 -77.529  0.00  0.00    +0.000 A 
ATOM     13  O   UNL     1     -58.331 -42.892 -77.961  0.00  0.00    +0.000 OA
ATOM     14  H   UNL     1     -54.742 -45.233 -75.480  0.00  0.00    +0.000 HD
ENDROOT
BRANCH   1  16
ATOM     15  C   UNL     1     -55.483 -40.673 -78.399  0.00  0.00    +0.000 C 
ATOM     16  C   UNL     1     -56.163 -41.226 -77.164  0.00  0.00    +0.000 C 
ATOM     17  O   UNL     1     -56.635 -40.453 -76.332  0.00  0.00    +0.000 OA
ENDBRANCH   1  16
BRANCH   2  18
ATOM     18  S   UNL     1     -53.970 -42.609 -75.321  0.00  0.00    +0.000 S 
ATOM     19  O   UNL     1     -53.361 -43.735 -74.527  0.00  0.00    +0.000 OA
BRANCH  18  20
ATOM     20  C   UNL     1     -52.780 -42.231 -76.647  0.00  0.00    +0.000 C 
BRANCH  20  21
ATOM     21  C   UNL     1     -51.968 -41.014 -76.346  0.00  0.00    +0.000 A 
ATOM     22  C   UNL     1     -50.679 -40.923 -75.759  0.00  0.00    +0.000 A 
ATOM     23  C   UNL     1     -50.370 -39.586 -75.806  0.00  0.00    +0.000 A 
ATOM     24  C   UNL     1     -49.203 -38.780 -75.404  0.00  0.00    +0.000 C 
ATOM     25  O   UNL     1     -51.406 -38.912 -76.371  0.00  0.00    +0.000 OA
ATOM     26  N   UNL     1     -52.407 -39.803 -76.717  0.00  0.00    +0.000 NA
ENDBRANCH  20  21
ENDBRANCH  18  20
ENDBRANCH   2  18
TORSDOF 4
ENDMDL
MODEL 5
REMARK VINA RESULT:    -6.184     14.684     16.198
REMARK INTER + INTRA:          -8.480
REMARK INTER:                  -7.786
REMARK INTRA:                  -0.694
REMARK UNBOUND:                -0.850
REMARK  Name = 
REMARK  6 active torsions:
REMARK  status: ('A' for Active; 'I' for Inactive)
REMARK    1  A    between atoms: C_1  and  C_2
REMARK    2  A    between atoms: C_2  and  C_4
REMARK    3  A    between atoms: C_5  and  S_6
REMARK    4  A    between atoms: S_6  and  C_8
REMARK    5  A    between atoms: C_8  and  C_9
REMARK    6  A    between atoms: C_11  and  C_12
REMARK                            x       y       z     vdW  Elec       q    Type
REMARK                         _______ _______ _______ _____ _____    ______ ____
ROOT
ATOM      1  C   UNL     1     -53.403 -41.501 -77.967  0.00  0.00    +0.000 A 
ATOM      2  C   UNL     1     -54.710 -41.242 -78.196  0.00  0.00    +0.000 A 
ATOM      3  N   UNL     1     -55.311 -41.418 -79.425  0.00  0.00    +0.000 N 
ATOM      4  C   UNL     1     -54.614 -41.835 -80.570  0.00  0.00    +0.000 A 
ATOM      5  C   UNL     1     -55.289 -42.096 -81.774  0.00  0.00    +0.000 A 
ATOM      6 BR   UNL     1     -57.169 -41.833 -81.916  0.00  0.00    +0.000 Br
ATOM      7  C   UNL     1     -54.611 -42.565 -82.895  0.00  0.00    +0.000 A 
ATOM      8  C   UNL     1     -53.238 -42.785 -82.823  0.00  0.00    +0.000 A 
ATOM      9  C   UNL     1     -52.544 -42.558 -81.628  0.00  0.00    +0.000 A 
ATOM     10 CL   UNL     1     -50.847 -42.888 -81.688  0.00  0.00    +0.000 Cl
ATOM     11  C   UNL     1     -53.237 -42.107 -80.488  0.00  0.00    +0.000 A 
ATOM     12  C   UNL     1     -52.580 -41.865 -79.176  0.00  0.00    +0.000 A 
ATOM     13  O   UNL     1     -51.358 -41.915 -79.073  0.00  0.00    +0.000 OA
ATOM     14  H   UNL     1     -56.179 -40.908 -79.585  0.00  0.00    +0.000 HD
ENDROOT
BRANCH   1  16
ATOM     15  C   UNL     1     -52.766 -42.645 -75.733  0.00  0.00    +0.000 C 
ATOM     16  C   UNL     1     -52.730 -41.423 -76.626  0.00  0.00    +0.000 C 
ATOM     17  O   UNL     1     -52.195 -40.391 -76.225  0.00  0.00    +0.000 OA
ENDBRANCH   1  16
BRANCH   2  18
ATOM     18  S   UNL     1     -55.758 -40.489 -76.910  0.00  0.00    +0.000 S 
ATOM     19  O   UNL     1     -56.965 -40.010 -77.673  0.00  0.00    +0.000 OA
BRANCH  18  20
ATOM     20  C   UNL     1     -56.284 -41.999 -76.039  0.00  0.00    +0.000 C 
BRANCH  20  21
ATOM     21  C   UNL     1     -56.614 -41.739 -74.607  0.00  0.00    +0.000 A 
ATOM     22  C   UNL     1     -56.100 -42.369 -73.443  0.00  0.00    +0.000 A 
ATOM     23  C   UNL     1     -56.668 -41.683 -72.398  0.00  0.00    +0.000 A 
ATOM     24  C   UNL     1     -56.570 -41.770 -70.929  0.00  0.00    +0.000 C 
ATOM     25  O   UNL     1     -57.479 -40.711 -72.894  0.00  0.00    +0.000 OA
ATOM     26  N   UNL     1     -57.443 -40.738 -74.278  0.00  0.00    +0.000 NA
ENDBRANCH  20  21
ENDBRANCH  18  20
ENDBRANCH   2  18
TORSDOF 4
ENDMDL
MODEL 6
REMARK VINA RESULT:    -6.039     15.286     16.567
REMARK INTER + INTRA:          -8.302
REMARK INTER:                  -7.272
REMARK INTRA:                  -1.030
REMARK UNBOUND:                -0.850
REMARK  Name = 
REMARK  6 active torsions:
REMARK  status: ('A' for Active; 'I' for Inactive)
REMARK    1  A    between atoms: C_1  and  C_2
REMARK    2  A    between atoms: C_2  and  C_4
REMARK    3  A    between atoms: C_5  and  S_6
REMARK    4  A    between atoms: S_6  and  C_8
REMARK    5  A    between atoms: C_8  and  C_9
REMARK    6  A    between atoms: C_11  and  C_12
REMARK                            x       y       z     vdW  Elec       q    Type
REMARK                         _______ _______ _______ _____ _____    ______ ____
ROOT
ATOM      1  C   UNL     1     -53.408 -41.843 -77.845  0.00  0.00    +0.000 A 
ATOM      2  C   UNL     1     -54.746 -41.746 -78.013  0.00  0.00    +0.000 A 
ATOM      3  N   UNL     1     -55.368 -41.912 -79.233  0.00  0.00    +0.000 N 
ATOM      4  C   UNL     1     -54.669 -42.146 -80.428  0.00  0.00    +0.000 A 
ATOM      5  C   UNL     1     -55.353 -42.409 -81.627  0.00  0.00    +0.000 A 
ATOM      6 BR   UNL     1     -57.255 -42.392 -81.690  0.00  0.00    +0.000 Br
ATOM      7  C   UNL     1     -54.664 -42.698 -82.801  0.00  0.00    +0.000 A 
ATOM      8  C   UNL     1     -53.273 -42.735 -82.788  0.00  0.00    +0.000 A 
ATOM      9  C   UNL     1     -52.567 -42.504 -81.602  0.00  0.00    +0.000 A 
ATOM     10 CL   UNL     1     -50.845 -42.596 -81.739  0.00  0.00    +0.000 Cl
ATOM     11  C   UNL     1     -53.266 -42.235 -80.409  0.00  0.00    +0.000 A 
ATOM     12  C   UNL     1     -52.594 -42.003 -79.104  0.00  0.00    +0.000 A 
ATOM     13  O   UNL     1     -51.373 -41.894 -79.042  0.00  0.00    +0.000 OA
ATOM     14  H   UNL     1     -56.302 -41.514 -79.326  0.00  0.00    +0.000 HD
ENDROOT
BRANCH   1  16
ATOM     15  C   UNL     1     -52.658 -43.016 -75.662  0.00  0.00    +0.000 C 
ATOM     16  C   UNL     1     -52.697 -41.772 -76.523  0.00  0.00    +0.000 C 
ATOM     17  O   UNL     1     -52.189 -40.730 -76.111  0.00  0.00    +0.000 OA
ENDBRANCH   1  16
BRANCH   2  18
ATOM     18  S   UNL     1     -55.831 -41.237 -76.640  0.00  0.00    +0.000 S 
ATOM     19  O   UNL     1     -56.538 -40.022 -77.181  0.00  0.00    +0.000 OA
BRANCH  18  20
ATOM     20  C   UNL     1     -57.044 -42.593 -76.708  0.00  0.00    +0.000 C 
BRANCH  20  21
ATOM     21  C   UNL     1     -56.392 -43.936 -76.687  0.00  0.00    +0.000 A 
ATOM     22  C   UNL     1     -55.872 -44.659 -75.581  0.00  0.00    +0.000 A 
ATOM     23  C   UNL     1     -55.481 -45.865 -76.109  0.00  0.00    +0.000 A 
ATOM     24  C   UNL     1     -54.888 -47.094 -75.551  0.00  0.00    +0.000 C 
ATOM     25  O   UNL     1     -55.736 -45.868 -77.444  0.00  0.00    +0.000 OA
ATOM     26  N   UNL     1     -56.313 -44.664 -77.810  0.00  0.00    +0.000 NA
ENDBRANCH  20  21
ENDBRANCH  18  20
ENDBRANCH   2  18
TORSDOF 4
ENDMDL
MODEL 7
REMARK VINA RESULT:    -5.981     13.203     15.053
REMARK INTER + INTRA:          -8.230
REMARK INTER:                  -8.111
REMARK INTRA:                  -0.120
REMARK UNBOUND:                -0.850
REMARK  Name = 
REMARK  6 active torsions:
REMARK  status: ('A' for Active; 'I' for Inactive)
REMARK    1  A    between atoms: C_1  and  C_2
REMARK    2  A    between atoms: C_2  and  C_4
REMARK    3  A    between atoms: C_5  and  S_6
REMARK    4  A    between atoms: S_6  and  C_8
REMARK    5  A    between atoms: C_8  and  C_9
REMARK    6  A    between atoms: C_11  and  C_12
REMARK                            x       y       z     vdW  Elec       q    Type
REMARK                         _______ _______ _______ _____ _____    ______ ____
ROOT
ATOM      1  C   UNL     1     -53.720 -40.775 -77.845  0.00  0.00    +0.000 A 
ATOM      2  C   UNL     1     -54.645 -41.754 -77.956  0.00  0.00    +0.000 A 
ATOM      3  N   UNL     1     -54.594 -42.927 -77.233  0.00  0.00    +0.000 N 
ATOM      4  C   UNL     1     -53.550 -43.243 -76.350  0.00  0.00    +0.000 A 
ATOM      5  C   UNL     1     -53.594 -44.405 -75.561  0.00  0.00    +0.000 A 
ATOM      6 BR   UNL     1     -55.043 -45.630 -75.709  0.00  0.00    +0.000 Br
ATOM      7  C   UNL     1     -52.589 -44.692 -74.643  0.00  0.00    +0.000 A 
ATOM      8  C   UNL     1     -51.522 -43.809 -74.496  0.00  0.00    +0.000 A 
ATOM      9  C   UNL     1     -51.466 -42.631 -75.249  0.00  0.00    +0.000 A 
ATOM     10 CL   UNL     1     -50.089 -41.628 -74.949  0.00  0.00    +0.000 Cl
ATOM     11  C   UNL     1     -52.497 -42.330 -76.162  0.00  0.00    +0.000 A 
ATOM     12  C   UNL     1     -52.526 -41.090 -76.981  0.00  0.00    +0.000 A 
ATOM     13  O   UNL     1     -51.560 -40.333 -76.998  0.00  0.00    +0.000 OA
ATOM     14  H   UNL     1     -55.125 -43.715 -77.605  0.00  0.00    +0.000 HD
ENDROOT
BRANCH   1  16
ATOM     15  C   UNL     1     -53.995 -39.417 -80.032  0.00  0.00    +0.000 C 
ATOM     16  C   UNL     1     -53.788 -39.441 -78.533  0.00  0.00    +0.000 C 
ATOM     17  O   UNL     1     -53.640 -38.384 -77.922  0.00  0.00    +0.000 OA
ENDBRANCH   1  16
BRANCH   2  18
ATOM     18  S   UNL     1     -55.974 -41.654 -79.200  0.00  0.00    +0.000 S 
ATOM     19  O   UNL     1     -56.347 -43.094 -79.433  0.00  0.00    +0.000 OA
BRANCH  18  20
ATOM     20  C   UNL     1     -57.296 -40.957 -78.160  0.00  0.00    +0.000 C 
BRANCH  20  21
ATOM     21  C   UNL     1     -57.280 -41.516 -76.775  0.00  0.00    +0.000 A 
ATOM     22  C   UNL     1     -56.980 -40.863 -75.552  0.00  0.00    +0.000 A 
ATOM     23  C   UNL     1     -57.210 -41.812 -74.587  0.00  0.00    +0.000 A 
ATOM     24  C   UNL     1     -57.131 -41.830 -73.114  0.00  0.00    +0.000 C 
ATOM     25  O   UNL     1     -57.610 -42.965 -75.185  0.00  0.00    +0.000 OA
ATOM     26  N   UNL     1     -57.662 -42.783 -76.557  0.00  0.00    +0.000 NA
ENDBRANCH  20  21
ENDBRANCH  18  20
ENDBRANCH   2  18
TORSDOF 4
ENDMDL
MODEL 8
REMARK VINA RESULT:    -5.744      3.696      6.865
REMARK INTER + INTRA:          -7.938
REMARK INTER:                  -7.140
REMARK INTRA:                  -0.798
REMARK UNBOUND:                -0.850
REMARK  Name = 
REMARK  6 active torsions:
REMARK  status: ('A' for Active; 'I' for Inactive)
REMARK    1  A    between atoms: C_1  and  C_2
REMARK    2  A    between atoms: C_2  and  C_4
REMARK    3  A    between atoms: C_5  and  S_6
REMARK    4  A    between atoms: S_6  and  C_8
REMARK    5  A    between atoms: C_8  and  C_9
REMARK    6  A    between atoms: C_11  and  C_12
REMARK                            x       y       z     vdW  Elec       q    Type
REMARK                         _______ _______ _______ _____ _____    ______ ____
ROOT
ATOM      1  C   UNL     1     -56.296 -42.256 -63.033  0.00  0.00    +0.000 A 
ATOM      2  C   UNL     1     -57.064 -41.544 -62.179  0.00  0.00    +0.000 A 
ATOM      3  N   UNL     1     -56.962 -41.644 -60.808  0.00  0.00    +0.000 N 
ATOM      4  C   UNL     1     -56.086 -42.532 -60.164  0.00  0.00    +0.000 A 
ATOM      5  C   UNL     1     -55.946 -42.525 -58.766  0.00  0.00    +0.000 A 
ATOM      6 BR   UNL     1     -56.988 -41.354 -57.687  0.00  0.00    +0.000 Br
ATOM      7  C   UNL     1     -55.037 -43.364 -58.128  0.00  0.00    +0.000 A 
ATOM      8  C   UNL     1     -54.246 -44.222 -58.887  0.00  0.00    +0.000 A 
ATOM      9  C   UNL     1     -54.346 -44.230 -60.284  0.00  0.00    +0.000 A 
ATOM     10 CL   UNL     1     -53.291 -45.339 -61.091  0.00  0.00    +0.000 Cl
ATOM     11  C   UNL     1     -55.249 -43.364 -60.930  0.00  0.00    +0.000 A 
ATOM     12  C   UNL     1     -55.399 -43.293 -62.407  0.00  0.00    +0.000 A 
ATOM     13  O   UNL     1     -54.830 -44.105 -63.130  0.00  0.00    +0.000 OA
ATOM     14  H   UNL     1     -57.768 -41.332 -60.267  0.00  0.00    +0.000 HD
ENDROOT
BRANCH   1  16
ATOM     15  C   UNL     1     -57.242 -42.976 -65.334  0.00  0.00    +0.000 C 
ATOM     16  C   UNL     1     -56.300 -42.107 -64.529  0.00  0.00    +0.000 C 
ATOM     17  O   UNL     1     -55.537 -41.336 -65.109  0.00  0.00    +0.000 OA
ENDBRANCH   1  16
BRANCH   2  18
ATOM     18  S   UNL     1     -58.417 -40.487 -62.792  0.00  0.00    +0.000 S 
ATOM     19  O   UNL     1     -59.655 -41.146 -62.244  0.00  0.00    +0.000 OA
BRANCH  18  20
ATOM     20  C   UNL     1     -58.132 -39.017 -61.755  0.00  0.00    +0.000 C 
BRANCH  20  21
ATOM     21  C   UNL     1     -57.237 -38.023 -62.419  0.00  0.00    +0.000 A 
ATOM     22  C   UNL     1     -56.125 -38.251 -63.271  0.00  0.00    +0.000 A 
ATOM     23  C   UNL     1     -55.732 -36.998 -63.672  0.00  0.00    +0.000 A 
ATOM     24  C   UNL     1     -54.678 -36.481 -64.564  0.00  0.00    +0.000 C 
ATOM     25  O   UNL     1     -56.544 -36.073 -63.094  0.00  0.00    +0.000 OA
ATOM     26  N   UNL     1     -57.492 -36.711 -62.313  0.00  0.00    +0.000 NA
ENDBRANCH  20  21
ENDBRANCH  18  20
ENDBRANCH   2  18
TORSDOF 4
ENDMDL
MODEL 9
REMARK VINA RESULT:    -5.438     14.745     15.945
REMARK INTER + INTRA:          -7.560
REMARK INTER:                  -6.540
REMARK INTRA:                  -1.020
REMARK UNBOUND:                -0.850
REMARK  Name = 
REMARK  6 active torsions:
REMARK  status: ('A' for Active; 'I' for Inactive)
REMARK    1  A    between atoms: C_1  and  C_2
REMARK    2  A    between atoms: C_2  and  C_4
REMARK    3  A    between atoms: C_5  and  S_6
REMARK    4  A    between atoms: S_6  and  C_8
REMARK    5  A    between atoms: C_8  and  C_9
REMARK    6  A    between atoms: C_11  and  C_12
REMARK                            x       y       z     vdW  Elec       q    Type
REMARK                         _______ _______ _______ _____ _____    ______ ____
ROOT
ATOM      1  C   UNL     1     -57.378 -43.314 -78.597  0.00  0.00    +0.000 A 
ATOM      2  C   UNL     1     -56.180 -43.495 -77.997  0.00  0.00    +0.000 A 
ATOM      3  N   UNL     1     -55.007 -42.950 -78.475  0.00  0.00    +0.000 N 
ATOM      4  C   UNL     1     -54.932 -42.198 -79.658  0.00  0.00    +0.000 A 
ATOM      5  C   UNL     1     -53.733 -41.580 -80.050  0.00  0.00    +0.000 A 
ATOM      6 BR   UNL     1     -52.145 -41.793 -79.023  0.00  0.00    +0.000 Br
ATOM      7  C   UNL     1     -53.669 -40.787 -81.192  0.00  0.00    +0.000 A 
ATOM      8  C   UNL     1     -54.816 -40.596 -81.958  0.00  0.00    +0.000 A 
ATOM      9  C   UNL     1     -56.030 -41.178 -81.576  0.00  0.00    +0.000 A 
ATOM     10 CL   UNL     1     -57.369 -40.840 -82.619  0.00  0.00    +0.000 Cl
ATOM     11  C   UNL     1     -56.099 -41.961 -80.407  0.00  0.00    +0.000 A 
ATOM     12  C   UNL     1     -57.352 -42.593 -79.920  0.00  0.00    +0.000 A 
ATOM     13  O   UNL     1     -58.368 -42.574 -80.609  0.00  0.00    +0.000 OA
ATOM     14  H   UNL     1     -54.141 -43.389 -78.163  0.00  0.00    +0.000 HD
ENDROOT
BRANCH   1  16
ATOM     15  C   UNL     1     -59.429 -42.928 -77.064  0.00  0.00    +0.000 C 
ATOM     16  C   UNL     1     -58.694 -43.801 -78.059  0.00  0.00    +0.000 C 
ATOM     17  O   UNL     1     -59.162 -44.894 -78.372  0.00  0.00    +0.000 OA
ENDBRANCH   1  16
BRANCH   2  18
ATOM     18  S   UNL     1     -56.003 -44.611 -76.568  0.00  0.00    +0.000 S 
ATOM     19  O   UNL     1     -54.811 -45.458 -76.927  0.00  0.00    +0.000 OA
BRANCH  18  20
ATOM     20  C   UNL     1     -55.412 -43.413 -75.331  0.00  0.00    +0.000 C 
BRANCH  20  21
ATOM     21  C   UNL     1     -56.527 -42.618 -74.736  0.00  0.00    +0.000 A 
ATOM     22  C   UNL     1     -57.426 -42.979 -73.699  0.00  0.00    +0.000 A 
ATOM     23  C   UNL     1     -58.177 -41.850 -73.483  0.00  0.00    +0.000 A 
ATOM     24  C   UNL     1     -59.265 -41.494 -72.554  0.00  0.00    +0.000 C 
ATOM     25  O   UNL     1     -57.770 -40.876 -74.340  0.00  0.00    +0.000 OA
ATOM     26  N   UNL     1     -56.731 -41.351 -75.123  0.00  0.00    +0.000 NA
ENDBRANCH  20  21
ENDBRANCH  18  20
ENDBRANCH   2  18
TORSDOF 4
ENDMDL
MODEL 10
REMARK VINA RESULT:    -5.426     14.881     16.466
REMARK INTER + INTRA:          -7.546
REMARK INTER:                  -6.802
REMARK INTRA:                  -0.744
REMARK UNBOUND:                -0.850
REMARK  Name = 
REMARK  6 active torsions:
REMARK  status: ('A' for Active; 'I' for Inactive)
REMARK    1  A    between atoms: C_1  and  C_2
REMARK    2  A    between atoms: C_2  and  C_4
REMARK    3  A    between atoms: C_5  and  S_6
REMARK    4  A    between atoms: S_6  and  C_8
REMARK    5  A    between atoms: C_8  and  C_9
REMARK    6  A    between atoms: C_11  and  C_12
REMARK                            x       y       z     vdW  Elec       q    Type
REMARK                         _______ _______ _______ _____ _____    ______ ____
ROOT
ATOM      1  C   UNL     1     -58.634 -45.555 -78.218  0.00  0.00    +0.000 A 
ATOM      2  C   UNL     1     -58.051 -44.429 -77.750  0.00  0.00    +0.000 A 
ATOM      3  N   UNL     1     -56.860 -44.427 -77.056  0.00  0.00    +0.000 N 
ATOM      4  C   UNL     1     -56.163 -45.599 -76.721  0.00  0.00    +0.000 A 
ATOM      5  C   UNL     1     -54.903 -45.540 -76.100  0.00  0.00    +0.000 A 
ATOM      6 BR   UNL     1     -54.123 -43.869 -75.632  0.00  0.00    +0.000 Br
ATOM      7  C   UNL     1     -54.183 -46.697 -75.819  0.00  0.00    +0.000 A 
ATOM      8  C   UNL     1     -54.715 -47.937 -76.163  0.00  0.00    +0.000 A 
ATOM      9  C   UNL     1     -55.956 -48.023 -76.806  0.00  0.00    +0.000 A 
ATOM     10 CL   UNL     1     -56.481 -49.628 -77.182  0.00  0.00    +0.000 Cl
ATOM     11  C   UNL     1     -56.673 -46.850 -77.112  0.00  0.00    +0.000 A 
ATOM     12  C   UNL     1     -57.983 -46.853 -77.814  0.00  0.00    +0.000 A 
ATOM     13  O   UNL     1     -58.570 -47.908 -78.031  0.00  0.00    +0.000 OA
ATOM     14  H   UNL     1     -56.669 -43.608 -76.480  0.00  0.00    +0.000 HD
ENDROOT
BRANCH   1  16
ATOM     15  C   UNL     1     -59.728 -45.413 -80.561  0.00  0.00    +0.000 C 
ATOM     16  C   UNL     1     -59.875 -45.597 -79.065  0.00  0.00    +0.000 C 
ATOM     17  O   UNL     1     -60.994 -45.734 -78.576  0.00  0.00    +0.000 OA
ENDBRANCH   1  16
BRANCH   2  18
ATOM     18  S   UNL     1     -58.886 -42.814 -77.882  0.00  0.00    +0.000 S 
ATOM     19  O   UNL     1     -60.107 -42.977 -77.016  0.00  0.00    +0.000 OA
BRANCH  18  20
ATOM     20  C   UNL     1     -57.720 -41.802 -76.917  0.00  0.00    +0.000 C 
BRANCH  20  21
ATOM     21  C   UNL     1     -56.652 -41.203 -77.771  0.00  0.00    +0.000 A 
ATOM     22  C   UNL     1     -55.613 -40.309 -77.405  0.00  0.00    +0.000 A 
ATOM     23  C   UNL     1     -54.865 -40.160 -78.547  0.00  0.00    +0.000 A 
ATOM     24  C   UNL     1     -53.643 -39.411 -78.892  0.00  0.00    +0.000 C 
ATOM     25  O   UNL     1     -55.419 -40.904 -79.540  0.00  0.00    +0.000 OA
ATOM     26  N   UNL     1     -56.536 -41.565 -79.057  0.00  0.00    +0.000 NA
ENDBRANCH  20  21
ENDBRANCH  18  20
ENDBRANCH   2  18
TORSDOF 4
ENDMDL
MODEL 11
REMARK VINA RESULT:    -5.345     15.384     16.955
REMARK INTER + INTRA:          -7.445
REMARK INTER:                  -6.757
REMARK INTRA:                  -0.687
REMARK UNBOUND:                -0.850
REMARK  Name = 
REMARK  6 active torsions:
REMARK  status: ('A' for Active; 'I' for Inactive)
REMARK    1  A    between atoms: C_1  and  C_2
REMARK    2  A    between atoms: C_2  and  C_4
REMARK    3  A    between atoms: C_5  and  S_6
REMARK    4  A    between atoms: S_6  and  C_8
REMARK    5  A    between atoms: C_8  and  C_9
REMARK    6  A    between atoms: C_11  and  C_12
REMARK                            x       y       z     vdW  Elec       q    Type
REMARK                         _______ _______ _______ _____ _____    ______ ____
ROOT
ATOM      1  C   UNL     1     -55.277 -44.269 -77.512  0.00  0.00    +0.000 A 
ATOM      2  C   UNL     1     -55.553 -43.156 -78.229  0.00  0.00    +0.000 A 
ATOM      3  N   UNL     1     -54.810 -41.998 -78.141  0.00  0.00    +0.000 N 
ATOM      4  C   UNL     1     -53.726 -41.843 -77.262  0.00  0.00    +0.000 A 
ATOM      5  C   UNL     1     -52.938 -40.680 -77.282  0.00  0.00    +0.000 A 
ATOM      6 BR   UNL     1     -53.351 -39.242 -78.458  0.00  0.00    +0.000 Br
ATOM      7  C   UNL     1     -51.828 -40.547 -76.453  0.00  0.00    +0.000 A 
ATOM      8  C   UNL     1     -51.487 -41.586 -75.592  0.00  0.00    +0.000 A 
ATOM      9  C   UNL     1     -52.238 -42.767 -75.571  0.00  0.00    +0.000 A 
ATOM     10 CL   UNL     1     -51.686 -43.973 -74.460  0.00  0.00    +0.000 Cl
ATOM     11  C   UNL     1     -53.347 -42.910 -76.428  0.00  0.00    +0.000 A 
ATOM     12  C   UNL     1     -54.182 -44.139 -76.485  0.00  0.00    +0.000 A 
ATOM     13  O   UNL     1     -54.019 -45.040 -75.669  0.00  0.00    +0.000 OA
ATOM     14  H   UNL     1     -55.265 -41.141 -78.454  0.00  0.00    +0.000 HD
ENDROOT
BRANCH   1  16
ATOM     15  C   UNL     1     -55.422 -46.616 -78.597  0.00  0.00    +0.000 C 
ATOM     16  C   UNL     1     -55.993 -45.583 -77.648  0.00  0.00    +0.000 C 
ATOM     17  O   UNL     1     -57.040 -45.821 -77.049  0.00  0.00    +0.000 OA
ENDBRANCH   1  16
BRANCH   2  18
ATOM     18  S   UNL     1     -57.043 -43.058 -79.274  0.00  0.00    +0.000 S 
ATOM     19  O   UNL     1     -58.106 -42.569 -78.327  0.00  0.00    +0.000 OA
BRANCH  18  20
ATOM     20  C   UNL     1     -56.587 -41.623 -80.299  0.00  0.00    +0.000 C 
BRANCH  20  21
ATOM     21  C   UNL     1     -57.382 -41.555 -81.561  0.00  0.00    +0.000 A 
ATOM     22  C   UNL     1     -58.730 -41.935 -81.788  0.00  0.00    +0.000 A 
ATOM     23  C   UNL     1     -58.978 -41.572 -83.089  0.00  0.00    +0.000 A 
ATOM     24  C   UNL     1     -60.154 -41.641 -83.975  0.00  0.00    +0.000 C 
ATOM     25  O   UNL     1     -57.853 -41.021 -83.617  0.00  0.00    +0.000 OA
ATOM     26  N   UNL     1     -56.852 -41.002 -82.661  0.00  0.00    +0.000 NA
ENDBRANCH  20  21
ENDBRANCH  18  20
ENDBRANCH   2  18
TORSDOF 4
ENDMDL
MODEL 12
REMARK VINA RESULT:    -5.318      4.008      7.034
REMARK INTER + INTRA:          -7.413
REMARK INTER:                  -6.549
REMARK INTRA:                  -0.864
REMARK UNBOUND:                -0.850
REMARK  Name = 
REMARK  6 active torsions:
REMARK  status: ('A' for Active; 'I' for Inactive)
REMARK    1  A    between atoms: C_1  and  C_2
REMARK    2  A    between atoms: C_2  and  C_4
REMARK    3  A    between atoms: C_5  and  S_6
REMARK    4  A    between atoms: S_6  and  C_8
REMARK    5  A    between atoms: C_8  and  C_9
REMARK    6  A    between atoms: C_11  and  C_12
REMARK                            x       y       z     vdW  Elec       q    Type
REMARK                         _______ _______ _______ _____ _____    ______ ____
ROOT
ATOM      1  C   UNL     1     -55.204 -37.239 -62.834  0.00  0.00    +0.000 A 
ATOM      2  C   UNL     1     -56.179 -37.954 -62.229  0.00  0.00    +0.000 A 
ATOM      3  N   UNL     1     -56.292 -39.323 -62.342  0.00  0.00    +0.000 N 
ATOM      4  C   UNL     1     -55.437 -40.103 -63.138  0.00  0.00    +0.000 A 
ATOM      5  C   UNL     1     -55.530 -41.505 -63.142  0.00  0.00    +0.000 A 
ATOM      6 BR   UNL     1     -56.862 -42.398 -62.116  0.00  0.00    +0.000 Br
ATOM      7  C   UNL     1     -54.648 -42.284 -63.884  0.00  0.00    +0.000 A 
ATOM      8  C   UNL     1     -53.651 -41.666 -64.633  0.00  0.00    +0.000 A 
ATOM      9  C   UNL     1     -53.519 -40.272 -64.626  0.00  0.00    +0.000 A 
ATOM     10 CL   UNL     1     -52.226 -39.650 -65.593  0.00  0.00    +0.000 Cl
ATOM     11  C   UNL     1     -54.397 -39.486 -63.855  0.00  0.00    +0.000 A 
ATOM     12  C   UNL     1     -54.309 -38.005 -63.774  0.00  0.00    +0.000 A 
ATOM     13  O   UNL     1     -53.541 -37.386 -64.504  0.00  0.00    +0.000 OA
ATOM     14  H   UNL     1     -57.206 -39.724 -62.134  0.00  0.00    +0.000 HD
ENDROOT
BRANCH   1  16
ATOM     15  C   UNL     1     -54.022 -35.307 -61.577  0.00  0.00    +0.000 C 
ATOM     16  C   UNL     1     -54.980 -35.763 -62.657  0.00  0.00    +0.000 C 
ATOM     17  O   UNL     1     -55.579 -34.928 -63.332  0.00  0.00    +0.000 OA
ENDBRANCH   1  16
BRANCH   2  18
ATOM     18  S   UNL     1     -57.524 -37.126 -61.320  0.00  0.00    +0.000 S 
ATOM     19  O   UNL     1     -58.408 -36.586 -62.413  0.00  0.00    +0.000 OA
BRANCH  18  20
ATOM     20  C   UNL     1     -58.380 -38.594 -60.663  0.00  0.00    +0.000 C 
BRANCH  20  21
ATOM     21  C   UNL     1     -59.741 -38.763 -61.252  0.00  0.00    +0.000 A 
ATOM     22  C   UNL     1     -60.160 -39.623 -62.300  0.00  0.00    +0.000 A 
ATOM     23  C   UNL     1     -61.520 -39.448 -62.370  0.00  0.00    +0.000 A 
ATOM     24  C   UNL     1     -62.597 -40.027 -63.195  0.00  0.00    +0.000 C 
ATOM     25  O   UNL     1     -61.898 -38.536 -61.435  0.00  0.00    +0.000 OA
ATOM     26  N   UNL     1     -60.787 -38.109 -60.728  0.00  0.00    +0.000 NA
ENDBRANCH  20  21
ENDBRANCH  18  20
ENDBRANCH   2  18
TORSDOF 4
ENDMDL
MODEL 13
REMARK VINA RESULT:    -5.203      3.306      4.347
REMARK INTER + INTRA:          -7.271
REMARK INTER:                  -6.358
REMARK INTRA:                  -0.913
REMARK UNBOUND:                -0.850
REMARK  Name = 
REMARK  6 active torsions:
REMARK  status: ('A' for Active; 'I' for Inactive)
REMARK    1  A    between atoms: C_1  and  C_2
REMARK    2  A    between atoms: C_2  and  C_4
REMARK    3  A    between atoms: C_5  and  S_6
REMARK    4  A    between atoms: S_6  and  C_8
REMARK    5  A    between atoms: C_8  and  C_9
REMARK    6  A    between atoms: C_11  and  C_12
REMARK                            x       y       z     vdW  Elec       q    Type
REMARK                         _______ _______ _______ _____ _____    ______ ____
ROOT
ATOM      1  C   UNL     1     -58.251 -38.241 -62.060  0.00  0.00    +0.000 A 
ATOM      2  C   UNL     1     -58.128 -39.563 -62.317  0.00  0.00    +0.000 A 
ATOM      3  N   UNL     1     -57.036 -40.110 -62.955  0.00  0.00    +0.000 N 
ATOM      4  C   UNL     1     -55.967 -39.344 -63.446  0.00  0.00    +0.000 A 
ATOM      5  C   UNL     1     -54.830 -39.956 -63.999  0.00  0.00    +0.000 A 
ATOM      6 BR   UNL     1     -54.723 -41.850 -64.162  0.00  0.00    +0.000 Br
ATOM      7  C   UNL     1     -53.744 -39.203 -64.434  0.00  0.00    +0.000 A 
ATOM      8  C   UNL     1     -53.780 -37.816 -64.315  0.00  0.00    +0.000 A 
ATOM      9  C   UNL     1     -54.889 -37.181 -63.743  0.00  0.00    +0.000 A 
ATOM     10 CL   UNL     1     -54.784 -35.457 -63.651  0.00  0.00    +0.000 Cl
ATOM     11  C   UNL     1     -55.977 -37.947 -63.281  0.00  0.00    +0.000 A 
ATOM     12  C   UNL     1     -57.180 -37.354 -62.641  0.00  0.00    +0.000 A 
ATOM     13  O   UNL     1     -57.337 -36.137 -62.619  0.00  0.00    +0.000 OA
ATOM     14  H   UNL     1     -57.170 -41.026 -63.384  0.00  0.00    +0.000 HD
ENDROOT
BRANCH   1  16
ATOM     15  C   UNL     1     -60.581 -37.112 -62.039  0.00  0.00    +0.000 C 
ATOM     16  C   UNL     1     -59.371 -37.614 -61.279  0.00  0.00    +0.000 C 
ATOM     17  O   UNL     1     -59.311 -37.462 -60.061  0.00  0.00    +0.000 OA
ENDBRANCH   1  16
BRANCH   2  18
ATOM     18  S   UNL     1     -59.492 -40.719 -61.961  0.00  0.00    +0.000 S 
ATOM     19  O   UNL     1     -60.248 -40.784 -63.261  0.00  0.00    +0.000 OA
BRANCH  18  20
ATOM     20  C   UNL     1     -58.541 -42.269 -61.856  0.00  0.00    +0.000 C 
BRANCH  20  21
ATOM     21  C   UNL     1     -57.653 -42.306 -60.657  0.00  0.00    +0.000 A 
ATOM     22  C   UNL     1     -58.005 -42.260 -59.283  0.00  0.00    +0.000 A 
ATOM     23  C   UNL     1     -56.817 -42.425 -58.614  0.00  0.00    +0.000 A 
ATOM     24  C   UNL     1     -56.433 -42.504 -57.193  0.00  0.00    +0.000 C 
ATOM     25  O   UNL     1     -55.812 -42.551 -59.521  0.00  0.00    +0.000 OA
ATOM     26  N   UNL     1     -56.332 -42.484 -60.802  0.00  0.00    +0.000 NA
ENDBRANCH  20  21
ENDBRANCH  18  20
ENDBRANCH   2  18
TORSDOF 4
ENDMDL
MODEL 14
REMARK VINA RESULT:    -5.143     15.273     16.638
REMARK INTER + INTRA:          -7.196
REMARK INTER:                  -6.819
REMARK INTRA:                  -0.376
REMARK UNBOUND:                -0.850
REMARK  Name = 
REMARK  6 active torsions:
REMARK  status: ('A' for Active; 'I' for Inactive)
REMARK    1  A    between atoms: C_1  and  C_2
REMARK    2  A    between atoms: C_2  and  C_4
REMARK    3  A    between atoms: C_5  and  S_6
REMARK    4  A    between atoms: S_6  and  C_8
REMARK    5  A    between atoms: C_8  and  C_9
REMARK    6  A    between atoms: C_11  and  C_12
REMARK                            x       y       z     vdW  Elec       q    Type
REMARK                         _______ _______ _______ _____ _____    ______ ____
ROOT
ATOM      1  C   UNL     1     -56.656 -47.738 -77.227  0.00  0.00    +0.000 A 
ATOM      2  C   UNL     1     -56.724 -46.482 -77.722  0.00  0.00    +0.000 A 
ATOM      3  N   UNL     1     -57.888 -45.923 -78.206  0.00  0.00    +0.000 N 
ATOM      4  C   UNL     1     -59.105 -46.619 -78.278  0.00  0.00    +0.000 A 
ATOM      5  C   UNL     1     -60.286 -45.975 -78.684  0.00  0.00    +0.000 A 
ATOM      6 BR   UNL     1     -60.267 -44.147 -79.213  0.00  0.00    +0.000 Br
ATOM      7  C   UNL     1     -61.504 -46.646 -78.702  0.00  0.00    +0.000 A 
ATOM      8  C   UNL     1     -61.558 -47.980 -78.306  0.00  0.00    +0.000 A 
ATOM      9  C   UNL     1     -60.402 -48.639 -77.872  0.00  0.00    +0.000 A 
ATOM     10 CL   UNL     1     -60.628 -50.288 -77.399  0.00  0.00    +0.000 Cl
ATOM     11  C   UNL     1     -59.174 -47.951 -77.831  0.00  0.00    +0.000 A 
ATOM     12  C   UNL     1     -57.907 -48.569 -77.360  0.00  0.00    +0.000 A 
ATOM     13  O   UNL     1     -57.853 -49.771 -77.118  0.00  0.00    +0.000 OA
ATOM     14  H   UNL     1     -57.785 -45.127 -78.835  0.00  0.00    +0.000 HD
ENDROOT
BRANCH   1  16
ATOM     15  C   UNL     1     -54.927 -47.765 -75.299  0.00  0.00    +0.000 C 
ATOM     16  C   UNL     1     -55.438 -48.353 -76.598  0.00  0.00    +0.000 C 
ATOM     17  O   UNL     1     -54.830 -49.282 -77.126  0.00  0.00    +0.000 OA
ENDBRANCH   1  16
BRANCH   2  18
ATOM     18  S   UNL     1     -55.223 -45.469 -77.924  0.00  0.00    +0.000 S 
ATOM     19  O   UNL     1     -55.452 -44.755 -79.230  0.00  0.00    +0.000 OA
BRANCH  18  20
ATOM     20  C   UNL     1     -55.524 -44.235 -76.620  0.00  0.00    +0.000 C 
BRANCH  20  21
ATOM     21  C   UNL     1     -54.438 -43.213 -76.547  0.00  0.00    +0.000 A 
ATOM     22  C   UNL     1     -53.219 -43.255 -75.822  0.00  0.00    +0.000 A 
ATOM     23  C   UNL     1     -52.558 -42.109 -76.188  0.00  0.00    +0.000 A 
ATOM     24  C   UNL     1     -51.249 -41.519 -75.853  0.00  0.00    +0.000 C 
ATOM     25  O   UNL     1     -53.328 -41.414 -77.067  0.00  0.00    +0.000 OA
ATOM     26  N   UNL     1     -54.505 -42.105 -77.300  0.00  0.00    +0.000 NA
ENDBRANCH  20  21
ENDBRANCH  18  20
ENDBRANCH   2  18
TORSDOF 4
ENDMDL
MODEL 15
REMARK VINA RESULT:    -5.126      4.000      6.568
REMARK INTER + INTRA:          -7.175
REMARK INTER:                  -6.049
REMARK INTRA:                  -1.126
REMARK UNBOUND:                -0.850
REMARK  Name = 
REMARK  6 active torsions:
REMARK  status: ('A' for Active; 'I' for Inactive)
REMARK    1  A    between atoms: C_1  and  C_2
REMARK    2  A    between atoms: C_2  and  C_4
REMARK    3  A    between atoms: C_5  and  S_6
REMARK    4  A    between atoms: S_6  and  C_8
REMARK    5  A    between atoms: C_8  and  C_9
REMARK    6  A    between atoms: C_11  and  C_12
REMARK                            x       y       z     vdW  Elec       q    Type
REMARK                         _______ _______ _______ _____ _____    ______ ____
ROOT
ATOM      1  C   UNL     1     -55.267 -37.284 -62.886  0.00  0.00    +0.000 A 
ATOM      2  C   UNL     1     -56.264 -37.999 -62.319  0.00  0.00    +0.000 A 
ATOM      3  N   UNL     1     -56.376 -39.368 -62.442  0.00  0.00    +0.000 N 
ATOM      4  C   UNL     1     -55.495 -40.147 -63.210  0.00  0.00    +0.000 A 
ATOM      5  C   UNL     1     -55.590 -41.548 -63.222  0.00  0.00    +0.000 A 
ATOM      6 BR   UNL     1     -56.960 -42.442 -62.248  0.00  0.00    +0.000 Br
ATOM      7  C   UNL     1     -54.684 -42.327 -63.936  0.00  0.00    +0.000 A 
ATOM      8  C   UNL     1     -53.660 -41.708 -64.646  0.00  0.00    +0.000 A 
ATOM      9  C   UNL     1     -53.525 -40.314 -64.629  0.00  0.00    +0.000 A 
ATOM     10 CL   UNL     1     -52.197 -39.691 -65.547  0.00  0.00    +0.000 Cl
ATOM     11  C   UNL     1     -54.429 -39.529 -63.887  0.00  0.00    +0.000 A 
ATOM     12  C   UNL     1     -54.341 -38.048 -63.797  0.00  0.00    +0.000 A 
ATOM     13  O   UNL     1     -53.546 -37.428 -64.496  0.00  0.00    +0.000 OA
ATOM     14  H   UNL     1     -57.298 -39.767 -62.268  0.00  0.00    +0.000 HD
ENDROOT
BRANCH   1  16
ATOM     15  C   UNL     1     -54.076 -35.361 -61.624  0.00  0.00    +0.000 C 
ATOM     16  C   UNL     1     -55.047 -35.809 -62.696  0.00  0.00    +0.000 C 
ATOM     17  O   UNL     1     -55.659 -34.969 -63.353  0.00  0.00    +0.000 OA
ENDBRANCH   1  16
BRANCH   2  18
ATOM     18  S   UNL     1     -57.640 -37.173 -61.455  0.00  0.00    +0.000 S 
ATOM     19  O   UNL     1     -58.866 -37.822 -62.042  0.00  0.00    +0.000 OA
BRANCH  18  20
ATOM     20  C   UNL     1     -57.429 -37.905 -59.801  0.00  0.00    +0.000 C 
BRANCH  20  21
ATOM     21  C   UNL     1     -56.230 -37.366 -59.094  0.00  0.00    +0.000 A 
ATOM     22  C   UNL     1     -55.007 -38.018 -58.787  0.00  0.00    +0.000 A 
ATOM     23  C   UNL     1     -54.225 -37.040 -58.223  0.00  0.00    +0.000 A 
ATOM     24  C   UNL     1     -52.848 -36.992 -57.697  0.00  0.00    +0.000 C 
ATOM     25  O   UNL     1     -54.930 -35.878 -58.181  0.00  0.00    +0.000 OA
ATOM     26  N   UNL     1     -56.185 -36.076 -58.732  0.00  0.00    +0.000 NA
ENDBRANCH  20  21
ENDBRANCH  18  20
ENDBRANCH   2  18
TORSDOF 4
ENDMDL
MODEL 16
REMARK VINA RESULT:    -4.899     16.282     17.860
REMARK INTER + INTRA:          -6.895
REMARK INTER:                  -6.309
REMARK INTRA:                  -0.586
REMARK UNBOUND:                -0.850
REMARK  Name = 
REMARK  6 active torsions:
REMARK  status: ('A' for Active; 'I' for Inactive)
REMARK    1  A    between atoms: C_1  and  C_2
REMARK    2  A    between atoms: C_2  and  C_4
REMARK    3  A    between atoms: C_5  and  S_6
REMARK    4  A    between atoms: S_6  and  C_8
REMARK    5  A    between atoms: C_8  and  C_9
REMARK    6  A    between atoms: C_11  and  C_12
REMARK                            x       y       z     vdW  Elec       q    Type
REMARK                         _______ _______ _______ _____ _____    ______ ____
ROOT
ATOM      1  C   UNL     1     -56.129 -44.408 -78.796  0.00  0.00    +0.000 A 
ATOM      2  C   UNL     1     -56.092 -43.111 -79.178  0.00  0.00    +0.000 A 
ATOM      3  N   UNL     1     -55.260 -42.177 -78.599  0.00  0.00    +0.000 N 
ATOM      4  C   UNL     1     -54.406 -42.467 -77.523  0.00  0.00    +0.000 A 
ATOM      5  C   UNL     1     -53.505 -41.507 -77.034  0.00  0.00    +0.000 A 
ATOM      6 BR   UNL     1     -53.452 -39.753 -77.771  0.00  0.00    +0.000 Br
ATOM      7  C   UNL     1     -52.618 -41.809 -76.005  0.00  0.00    +0.000 A 
ATOM      8  C   UNL     1     -52.617 -43.087 -75.453  0.00  0.00    +0.000 A 
ATOM      9  C   UNL     1     -53.486 -44.071 -75.939  0.00  0.00    +0.000 A 
ATOM     10 CL   UNL     1     -53.361 -45.613 -75.164  0.00  0.00    +0.000 Cl
ATOM     11  C   UNL     1     -54.367 -43.771 -76.997  0.00  0.00    +0.000 A 
ATOM     12  C   UNL     1     -55.303 -44.763 -77.586  0.00  0.00    +0.000 A 
ATOM     13  O   UNL     1     -55.448 -45.867 -77.069  0.00  0.00    +0.000 OA
ATOM     14  H   UNL     1     -55.522 -41.198 -78.717  0.00  0.00    +0.000 HD
ENDROOT
BRANCH   1  16
ATOM     15  C   UNL     1     -58.329 -45.767 -78.928  0.00  0.00    +0.000 C 
ATOM     16  C   UNL     1     -56.941 -45.481 -79.463  0.00  0.00    +0.000 C 
ATOM     17  O   UNL     1     -56.497 -46.152 -80.393  0.00  0.00    +0.000 OA
ENDBRANCH   1  16
BRANCH   2  18
ATOM     18  S   UNL     1     -57.266 -42.462 -80.412  0.00  0.00    +0.000 S 
ATOM     19  O   UNL     1     -58.109 -41.497 -79.621  0.00  0.00    +0.000 OA
BRANCH  18  20
ATOM     20  C   UNL     1     -56.123 -41.439 -81.394  0.00  0.00    +0.000 C 
BRANCH  20  21
ATOM     21  C   UNL     1     -56.740 -40.970 -82.670  0.00  0.00    +0.000 A 
ATOM     22  C   UNL     1     -56.375 -39.868 -83.486  0.00  0.00    +0.000 A 
ATOM     23  C   UNL     1     -57.204 -39.954 -84.576  0.00  0.00    +0.000 A 
ATOM     24  C   UNL     1     -57.368 -39.171 -85.815  0.00  0.00    +0.000 C 
ATOM     25  O   UNL     1     -58.024 -41.028 -84.426  0.00  0.00    +0.000 OA
ATOM     26  N   UNL     1     -57.733 -41.671 -83.235  0.00  0.00    +0.000 NA
ENDBRANCH  20  21
ENDBRANCH  18  20
ENDBRANCH   2  18
TORSDOF 4
ENDMDL
MODEL 17
REMARK VINA RESULT:    -4.813     12.201     13.940
REMARK INTER + INTRA:          -6.788
REMARK INTER:                  -6.201
REMARK INTRA:                  -0.587
REMARK UNBOUND:                -0.850
REMARK  Name = 
REMARK  6 active torsions:
REMARK  status: ('A' for Active; 'I' for Inactive)
REMARK    1  A    between atoms: C_1  and  C_2
REMARK    2  A    between atoms: C_2  and  C_4
REMARK    3  A    between atoms: C_5  and  S_6
REMARK    4  A    between atoms: S_6  and  C_8
REMARK    5  A    between atoms: C_8  and  C_9
REMARK    6  A    between atoms: C_11  and  C_12
REMARK                            x       y       z     vdW  Elec       q    Type
REMARK                         _______ _______ _______ _____ _____    ______ ____
ROOT
ATOM      1  C   UNL     1     -63.969 -41.112 -70.120  0.00  0.00    +0.000 A 
ATOM      2  C   UNL     1     -65.278 -41.353 -70.356  0.00  0.00    +0.000 A 
ATOM      3  N   UNL     1     -65.728 -42.093 -71.429  0.00  0.00    +0.000 N 
ATOM      4  C   UNL     1     -64.875 -42.626 -72.409  0.00  0.00    +0.000 A 
ATOM      5  C   UNL     1     -65.372 -43.457 -73.427  0.00  0.00    +0.000 A 
ATOM      6 BR   UNL     1     -67.232 -43.842 -73.552  0.00  0.00    +0.000 Br
ATOM      7  C   UNL     1     -64.523 -44.033 -74.366  0.00  0.00    +0.000 A 
ATOM      8  C   UNL     1     -63.154 -43.788 -74.295  0.00  0.00    +0.000 A 
ATOM      9  C   UNL     1     -62.629 -42.985 -73.276  0.00  0.00    +0.000 A 
ATOM     10 CL   UNL     1     -60.911 -42.781 -73.309  0.00  0.00    +0.000 Cl
ATOM     11  C   UNL     1     -63.488 -42.422 -72.311  0.00  0.00    +0.000 A 
ATOM     12  C   UNL     1     -63.009 -41.579 -71.184  0.00  0.00    +0.000 A 
ATOM     13  O   UNL     1     -61.837 -41.216 -71.132  0.00  0.00    +0.000 OA
ATOM     14  H   UNL     1     -66.700 -41.954 -71.703  0.00  0.00    +0.000 HD
ENDROOT
BRANCH   1  16
ATOM     15  C   UNL     1     -63.258 -38.896 -68.982  0.00  0.00    +0.000 C 
ATOM     16  C   UNL     1     -63.426 -40.400 -68.913  0.00  0.00    +0.000 C 
ATOM     17  O   UNL     1     -63.080 -41.005 -67.900  0.00  0.00    +0.000 OA
ENDBRANCH   1  16
BRANCH   2  18
ATOM     18  S   UNL     1     -66.574 -40.581 -69.334  0.00  0.00    +0.000 S 
ATOM     19  O   UNL     1     -67.629 -40.192 -70.337  0.00  0.00    +0.000 OA
BRANCH  18  20
ATOM     20  C   UNL     1     -67.207 -42.066 -68.493  0.00  0.00    +0.000 C 
BRANCH  20  21
ATOM     21  C   UNL     1     -67.502 -41.815 -67.051  0.00  0.00    +0.000 A 
ATOM     22  C   UNL     1     -68.214 -42.627 -66.130  0.00  0.00    +0.000 A 
ATOM     23  C   UNL     1     -68.103 -41.971 -64.930  0.00  0.00    +0.000 A 
ATOM     24  C   UNL     1     -68.566 -42.241 -63.556  0.00  0.00    +0.000 C 
ATOM     25  O   UNL     1     -67.382 -40.832 -65.112  0.00  0.00    +0.000 OA
ATOM     26  N   UNL     1     -66.998 -40.733 -66.439  0.00  0.00    +0.000 NA
ENDBRANCH  20  21
ENDBRANCH  18  20
ENDBRANCH   2  18
TORSDOF 4
ENDMDL
MODEL 18
REMARK VINA RESULT:    -4.786     12.348     14.313
REMARK INTER + INTRA:          -6.756
REMARK INTER:                  -6.011
REMARK INTRA:                  -0.744
REMARK UNBOUND:                -0.850
REMARK  Name = 
REMARK  6 active torsions:
REMARK  status: ('A' for Active; 'I' for Inactive)
REMARK    1  A    between atoms: C_1  and  C_2
REMARK    2  A    between atoms: C_2  and  C_4
REMARK    3  A    between atoms: C_5  and  S_6
REMARK    4  A    between atoms: S_6  and  C_8
REMARK    5  A    between atoms: C_8  and  C_9
REMARK    6  A    between atoms: C_11  and  C_12
REMARK                            x       y       z     vdW  Elec       q    Type
REMARK                         _______ _______ _______ _____ _____    ______ ____
ROOT
ATOM      1  C   UNL     1     -66.037 -42.470 -71.136  0.00  0.00    +0.000 A 
ATOM      2  C   UNL     1     -66.251 -42.139 -69.843  0.00  0.00    +0.000 A 
ATOM      3  N   UNL     1     -65.232 -41.894 -68.947  0.00  0.00    +0.000 N 
ATOM      4  C   UNL     1     -63.872 -42.014 -69.276  0.00  0.00    +0.000 A 
ATOM      5  C   UNL     1     -62.871 -41.657 -68.358  0.00  0.00    +0.000 A 
ATOM      6 BR   UNL     1     -63.320 -41.057 -66.609  0.00  0.00    +0.000 Br
ATOM      7  C   UNL     1     -61.523 -41.720 -68.700  0.00  0.00    +0.000 A 
ATOM      8  C   UNL     1     -61.159 -42.138 -69.977  0.00  0.00    +0.000 A 
ATOM      9  C   UNL     1     -62.137 -42.475 -70.920  0.00  0.00    +0.000 A 
ATOM     10 CL   UNL     1     -61.532 -42.963 -72.466  0.00  0.00    +0.000 Cl
ATOM     11  C   UNL     1     -63.501 -42.388 -70.580  0.00  0.00    +0.000 A 
ATOM     12  C   UNL     1     -64.600 -42.703 -71.529  0.00  0.00    +0.000 A 
ATOM     13  O   UNL     1     -64.355 -43.198 -72.625  0.00  0.00    +0.000 OA
ATOM     14  H   UNL     1     -65.466 -41.973 -67.958  0.00  0.00    +0.000 HD
ENDROOT
BRANCH   1  16
ATOM     15  C   UNL     1     -67.553 -41.430 -72.961  0.00  0.00    +0.000 C 
ATOM     16  C   UNL     1     -67.112 -42.645 -72.172  0.00  0.00    +0.000 C 
ATOM     17  O   UNL     1     -67.663 -43.727 -72.363  0.00  0.00    +0.000 OA
ENDBRANCH   1  16
BRANCH   2  18
ATOM     18  S   UNL     1     -67.933 -42.135 -69.141  0.00  0.00    +0.000 S 
ATOM     19  O   UNL     1     -68.244 -43.597 -68.962  0.00  0.00    +0.000 OA
BRANCH  18  20
ATOM     20  C   UNL     1     -67.554 -41.496 -67.478  0.00  0.00    +0.000 C 
BRANCH  20  21
ATOM     21  C   UNL     1     -68.346 -40.274 -67.149  0.00  0.00    +0.000 A 
ATOM     22  C   UNL     1     -69.336 -39.616 -67.925  0.00  0.00    +0.000 A 
ATOM     23  C   UNL     1     -69.804 -38.613 -67.112  0.00  0.00    +0.000 A 
ATOM     24  C   UNL     1     -70.837 -37.570 -67.246  0.00  0.00    +0.000 C 
ATOM     25  O   UNL     1     -69.135 -38.654 -65.929  0.00  0.00    +0.000 OA
ATOM     26  N   UNL     1     -68.225 -39.697 -65.945  0.00  0.00    +0.000 NA
ENDBRANCH  20  21
ENDBRANCH  18  20
ENDBRANCH   2  18
TORSDOF 4
ENDMDL
MODEL 19
REMARK VINA RESULT:    -4.785     12.574     13.951
REMARK INTER + INTRA:          -6.754
REMARK INTER:                  -6.117
REMARK INTRA:                  -0.637
REMARK UNBOUND:                -0.850
REMARK  Name = 
REMARK  6 active torsions:
REMARK  status: ('A' for Active; 'I' for Inactive)
REMARK    1  A    between atoms: C_1  and  C_2
REMARK    2  A    between atoms: C_2  and  C_4
REMARK    3  A    between atoms: C_5  and  S_6
REMARK    4  A    between atoms: S_6  and  C_8
REMARK    5  A    between atoms: C_8  and  C_9
REMARK    6  A    between atoms: C_11  and  C_12
REMARK                            x       y       z     vdW  Elec       q    Type
REMARK                         _______ _______ _______ _____ _____    ______ ____
ROOT
ATOM      1  C   UNL     1     -64.341 -43.132 -69.733  0.00  0.00    +0.000 A 
ATOM      2  C   UNL     1     -65.636 -42.892 -69.427  0.00  0.00    +0.000 A 
ATOM      3  N   UNL     1     -66.027 -42.085 -68.380  0.00  0.00    +0.000 N 
ATOM      4  C   UNL     1     -65.121 -41.475 -67.497  0.00  0.00    +0.000 A 
ATOM      5  C   UNL     1     -65.564 -40.582 -66.508  0.00  0.00    +0.000 A 
ATOM      6 BR   UNL     1     -67.418 -40.214 -66.284  0.00  0.00    +0.000 Br
ATOM      7  C   UNL     1     -64.664 -39.931 -65.668  0.00  0.00    +0.000 A 
ATOM      8  C   UNL     1     -63.300 -40.163 -65.815  0.00  0.00    +0.000 A 
ATOM      9  C   UNL     1     -62.829 -41.028 -66.810  0.00  0.00    +0.000 A 
ATOM     10 CL   UNL     1     -61.109 -41.207 -66.878  0.00  0.00    +0.000 Cl
ATOM     11  C   UNL     1     -63.739 -41.667 -67.674  0.00  0.00    +0.000 A 
ATOM     12  C   UNL     1     -63.321 -42.580 -68.771  0.00  0.00    +0.000 A 
ATOM     13  O   UNL     1     -62.150 -42.930 -68.877  0.00  0.00    +0.000 OA
ATOM     14  H   UNL     1     -66.976 -42.218 -68.032  0.00  0.00    +0.000 HD
ENDROOT
BRANCH   1  16
ATOM     15  C   UNL     1     -63.612 -45.400 -70.748  0.00  0.00    +0.000 C 
ATOM     16  C   UNL     1     -63.867 -43.918 -70.923  0.00  0.00    +0.000 C 
ATOM     17  O   UNL     1     -63.644 -43.386 -72.009  0.00  0.00    +0.000 OA
ENDBRANCH   1  16
BRANCH   2  18
ATOM     18  S   UNL     1     -66.983 -43.749 -70.305  0.00  0.00    +0.000 S 
ATOM     19  O   UNL     1     -68.205 -43.409 -69.493  0.00  0.00    +0.000 OA
BRANCH  18  20
ATOM     20  C   UNL     1     -67.068 -42.710 -71.798  0.00  0.00    +0.000 C 
BRANCH  20  21
ATOM     21  C   UNL     1     -67.312 -43.514 -73.032  0.00  0.00    +0.000 A 
ATOM     22  C   UNL     1     -68.458 -44.269 -73.394  0.00  0.00    +0.000 A 
ATOM     23  C   UNL     1     -68.189 -44.721 -74.662  0.00  0.00    +0.000 A 
ATOM     24  C   UNL     1     -68.927 -45.530 -75.650  0.00  0.00    +0.000 C 
ATOM     25  O   UNL     1     -66.959 -44.281 -75.038  0.00  0.00    +0.000 OA
ATOM     26  N   UNL     1     -66.408 -43.518 -74.022  0.00  0.00    +0.000 NA
ENDBRANCH  20  21
ENDBRANCH  18  20
ENDBRANCH   2  18
TORSDOF 4
ENDMDL
MODEL 20
REMARK VINA RESULT:    -4.721     12.609     13.834
REMARK INTER + INTRA:          -6.675
REMARK INTER:                  -5.982
REMARK INTRA:                  -0.693
REMARK UNBOUND:                -0.850
REMARK  Name = 
REMARK  6 active torsions:
REMARK  status: ('A' for Active; 'I' for Inactive)
REMARK    1  A    between atoms: C_1  and  C_2
REMARK    2  A    between atoms: C_2  and  C_4
REMARK    3  A    between atoms: C_5  and  S_6
REMARK    4  A    between atoms: S_6  and  C_8
REMARK    5  A    between atoms: C_8  and  C_9
REMARK    6  A    between atoms: C_11  and  C_12
REMARK                            x       y       z     vdW  Elec       q    Type
REMARK                         _______ _______ _______ _____ _____    ______ ____
ROOT
ATOM      1  C   UNL     1     -66.418 -41.329 -68.222  0.00  0.00    +0.000 A 
ATOM      2  C   UNL     1     -66.159 -41.789 -69.467  0.00  0.00    +0.000 A 
ATOM      3  N   UNL     1     -64.886 -42.056 -69.924  0.00  0.00    +0.000 N 
ATOM      4  C   UNL     1     -63.730 -41.829 -69.160  0.00  0.00    +0.000 A 
ATOM      5  C   UNL     1     -62.464 -42.212 -69.631  0.00  0.00    +0.000 A 
ATOM      6 BR   UNL     1     -62.259 -42.995 -71.354  0.00  0.00    +0.000 Br
ATOM      7  C   UNL     1     -61.322 -42.042 -68.854  0.00  0.00    +0.000 A 
ATOM      8  C   UNL     1     -61.436 -41.488 -67.582  0.00  0.00    +0.000 A 
ATOM      9  C   UNL     1     -62.689 -41.122 -67.076  0.00  0.00    +0.000 A 
ATOM     10 CL   UNL     1     -62.675 -40.460 -65.478  0.00  0.00    +0.000 Cl
ATOM     11  C   UNL     1     -63.847 -41.318 -67.855  0.00  0.00    +0.000 A 
ATOM     12  C   UNL     1     -65.215 -40.980 -67.384  0.00  0.00    +0.000 A 
ATOM     13  O   UNL     1     -65.379 -40.372 -66.330  0.00  0.00    +0.000 OA
ATOM     14  H   UNL     1     -64.761 -42.083 -70.936  0.00  0.00    +0.000 HD
ENDROOT
BRANCH   1  16
ATOM     15  C   UNL     1     -68.456 -42.283 -66.940  0.00  0.00    +0.000 C 
ATOM     16  C   UNL     1     -67.790 -41.121 -67.647  0.00  0.00    +0.000 C 
ATOM     17  O   UNL     1     -68.395 -40.057 -67.771  0.00  0.00    +0.000 OA
ENDBRANCH   1  16
BRANCH   2  18
ATOM     18  S   UNL     1     -67.489 -41.953 -70.703  0.00  0.00    +0.000 S 
ATOM     19  O   UNL     1     -67.594 -40.572 -71.294  0.00  0.00    +0.000 OA
BRANCH  18  20
ATOM     20  C   UNL     1     -66.614 -42.963 -71.941  0.00  0.00    +0.000 C 
BRANCH  20  21
ATOM     21  C   UNL     1     -67.555 -43.724 -72.814  0.00  0.00    +0.000 A 
ATOM     22  C   UNL     1     -67.353 -44.215 -74.131  0.00  0.00    +0.000 A 
ATOM     23  C   UNL     1     -68.496 -44.919 -74.418  0.00  0.00    +0.000 A 
ATOM     24  C   UNL     1     -68.964 -45.704 -75.575  0.00  0.00    +0.000 C 
ATOM     25  O   UNL     1     -69.339 -44.850 -73.353  0.00  0.00    +0.000 OA
ATOM     26  N   UNL     1     -68.751 -44.107 -72.343  0.00  0.00    +0.000 NA
ENDBRANCH  20  21
ENDBRANCH  18  20
ENDBRANCH   2  18
TORSDOF 4
ENDMDL
