=
 OpenBabel09162515003D

 28 30  0  0  0  0  0  0  0  0999 V2000
  -55.9150  -42.6010  -76.6060 C   0  0  0  0  0  0  0  0  0  0  0  0
  -54.6050  -42.9850  -76.3360 N   0  0  0  0  0  0  0  0  0  0  0  0
  -53.5550  -42.0470  -76.2870 C   0  0  0  0  0  0  0  0  0  0  0  0
  -52.3410  -42.3140  -75.6260 C   0  0  0  0  0  0  0  0  0  0  0  0
  -52.1100  -43.9030  -74.6160 Br  0  0  0  0  0  0  0  0  0  0  0  0
  -51.2870  -41.3970  -75.6600 C   0  0  0  0  0  3  0  0  0  0  0  0
  -51.4320  -40.1980  -76.3500 C   0  0  0  0  0  3  0  0  0  0  0  0
  -52.6390  -39.9080  -77.0110 C   0  0  0  0  0  0  0  0  0  0  0  0
  -52.7260  -38.3600  -77.7720 Cl  0  0  0  0  0  0  0  0  0  0  0  0
  -53.7010  -40.8360  -76.9840 C   0  0  0  0  0  0  0  0  0  0  0  0
  -55.0000  -40.6390  -77.6760 C   0  0  0  0  0  0  0  0  0  0  0  0
  -55.0750  -39.8840  -78.6410 O   0  0  0  0  0  0  0  0  0  0  0  0
  -56.2180  -41.4080  -77.1720 C   0  0  0  0  0  0  0  0  0  0  0  0
  -54.5290  -43.7820  -75.6890 H   0  0  0  0  0  0  0  0  0  0  0  0
  -57.1210  -43.7920  -75.9110 S   0  0  2  0  0  0  0  0  0  0  0  0
  -57.8240  -44.3410  -77.1230 O   0  0  0  0  0  0  0  0  0  0  0  0
  -58.2880  -42.7240  -75.0010 C   0  0  0  0  0  2  0  0  0  0  0  0
  -55.8560  -41.1060  -70.7260 C   0  0  0  0  0  1  0  0  0  0  0  0
  -56.6300  -41.3770  -71.9580 C   0  0  0  0  0  0  0  0  0  0  0  0
  -56.7160  -42.4270  -72.8440 C   0  0  0  0  0  3  0  0  0  0  0  0
  -57.6950  -42.0280  -73.7980 C   0  0  0  0  0  0  0  0  0  0  0  0
  -58.1470  -40.7970  -73.5000 N   0  0  0  0  0  0  0  0  0  0  0  0
  -57.4850  -40.3990  -72.3540 O   0  0  0  0  0  0  0  0  0  0  0  0
  -57.5620  -40.7330  -77.3330 C   0  0  0  0  0  0  0  0  0  0  0  0
  -57.8520  -39.7590  -76.6400 O   0  0  0  0  0  0  0  0  0  0  0  0
  -58.5970  -41.2950  -78.3080 C   0  0  0  0  0  3  0  0  0  0  0  0
  -59.7180  -40.2960  -78.5820 C   0  0  0  0  0  1  0  0  0  0  0  0
  -57.9570  -41.7480  -79.6230 C   0  0  0  0  0  1  0  0  0  0  0  0
  1  2  1  0  0  0  0
  1 15  1  0  0  0  0
  2  3  1  0  0  0  0
  2 14  1  0  0  0  0
  3  4  1  0  0  0  0
  4  5  1  0  0  0  0
  6  4  2  0  0  0  0
  7  6  1  0  0  0  0
  8 10  1  0  0  0  0
  8  7  2  0  0  0  0
  9  8  1  0  0  0  0
 10  3  2  0  0  0  0
 11 13  1  0  0  0  0
 11 10  1  0  0  0  0
 12 11  2  0  0  0  0
 13  1  2  0  0  0  0
 15 16  2  6  0  0  0
 15 17  1  0  0  0  0
 17 21  1  0  0  0  0
 19 18  1  0  0  0  0
 20 19  2  0  0  0  0
 21 22  2  0  0  0  0
 21 20  1  0  0  0  0
 22 23  1  0  0  0  0
 23 19  1  0  0  0  0
 24 13  1  0  0  0  0
 24 25  2  0  0  0  0
 26 24  1  0  0  0  0
 27 26  1  0  0  0  0
 28 26  1  0  0  0  0
M  END
>  <MODEL>
1

>  <REMARK>
 VINA RESULT:    -7.497      0.000      0.000
 INTER + INTRA:         -10.558
 INTER:                  -9.688
 INTRA:                  -0.870
 UNBOUND:                -0.870
  Name = 
  8 active torsions:
  status: ('A' for Active; 'I' for Inactive)
    1  A    between atoms: C_1  and  C_2
    2  A    between atoms: C_4  and  C_5
    3  A    between atoms: C_5  and  S_6
    4  A    between atoms: S_6  and  C_8
    5  A    between atoms: C_20  and  C_21
    6  A    between atoms: C_21  and  C_23
    7  A    between atoms: C_23  and  C_24
    8  A    between atoms: C_23  and  C_25
                            x       y       z     vdW  Elec       q    Type
                         _______ _______ _______ _____ _____    ______ ____

>  <TORSDO>
F 5

$$$$
