REMARK VINA RESULT:    -6.598      2.970      4.506
REMARK INTER + INTRA:          -9.470
REMARK INTER:                  -8.653
REMARK INTRA:                  -0.816
REMARK UNBOUND:                -0.943
REMARK  Name = 
REMARK  6 active torsions:
REMARK  status: ('A' for Active; 'I' for Inactive)
REMARK    1  A    between atoms: C_1  and  C_2
REMARK    2  A    between atoms: C_4  and  C_5
REMARK    3  A    between atoms: C_5  and  S_6
REMARK    4  A    between atoms: S_6  and  C_8
REMARK    5  A    between atoms: C_20  and  C_21
REMARK    6  A    between atoms: C_21  and  C_23
REMARK                            x       y       z     vdW  Elec       q    Type
REMARK                         _______ _______ _______ _____ _____    ______ ____
ROOT
ATOM      1  C   UNL     1     -55.674 -43.283 -77.421  0.00  0.00    +0.000 A 
ATOM      2  N   UNL     1     -54.368 -43.429 -76.913  0.00  0.00    +0.000 N 
ATOM      3  C   UNL     1     -53.531 -42.295 -76.731  0.00  0.00    +0.000 A 
ATOM      4  C   UNL     1     -52.402 -42.300 -75.891  0.00  0.00    +0.000 A 
ATOM      5 BR   UNL     1     -52.012 -43.791 -74.785  0.00  0.00    +0.000 Br
ATOM      6  C   UNL     1     -51.541 -41.196 -75.826  0.00  0.00    +0.000 A 
ATOM      7  C   UNL     1     -51.820 -40.055 -76.587  0.00  0.00    +0.000 A 
ATOM      8  C   UNL     1     -52.934 -40.025 -77.425  0.00  0.00    +0.000 A 
ATOM      9 CL   UNL     1     -53.230 -38.546 -78.266  0.00  0.00    +0.000 Cl
ATOM     10  C   UNL     1     -53.768 -41.150 -77.509  0.00  0.00    +0.000 A 
ATOM     11  C   UNL     1     -54.917 -41.243 -78.430  0.00  0.00    +0.000 A 
ATOM     12  O   UNL     1     -54.931 -40.657 -79.505  0.00  0.00    +0.000 OA
ATOM     13  C   UNL     1     -56.052 -42.148 -78.049  0.00  0.00    +0.000 A 
ATOM     14  H   UNL     1     -54.326 -44.104 -76.137  0.00  0.00    +0.000 HD
ENDROOT
BRANCH   1  15
ATOM     15  S   UNL     1     -56.822 -44.517 -76.757  0.00  0.00    +0.000 S 
ATOM     16  O   UNL     1     -55.947 -45.442 -75.956  0.00  0.00    +0.000 OA
BRANCH  15  17
ATOM     17  C   UNL     1     -57.529 -45.485 -78.123  0.00  0.00    +0.000 C 
BRANCH  17  21
ATOM     18  C   UNL     1     -61.050 -49.161 -77.574  0.00  0.00    +0.000 C 
ATOM     19  C   UNL     1     -59.892 -48.260 -77.721  0.00  0.00    +0.000 A 
ATOM     20  C   UNL     1     -59.739 -46.915 -77.964  0.00  0.00    +0.000 A 
ATOM     21  C   UNL     1     -58.345 -46.697 -77.883  0.00  0.00    +0.000 A 
ATOM     22  N   UNL     1     -57.698 -47.857 -77.674  0.00  0.00    +0.000 NA
ATOM     23  O   UNL     1     -58.670 -48.830 -77.572  0.00  0.00    +0.000 OA
ENDBRANCH  17  21
ENDBRANCH  15  17
ENDBRANCH   1  15
BRANCH  13  24
ATOM     24  C   UNL     1     -57.398 -41.550 -78.279  0.00  0.00    +0.000 C 
ATOM     25  O   UNL     1     -58.052 -41.856 -79.260  0.00  0.00    +0.000 OA
BRANCH  24  26
ATOM     26  C   UNL     1     -57.943 -40.618 -77.273  0.00  0.00    +0.000 C 
ATOM     27  C   UNL     1     -57.208 -40.417 -75.973  0.00  0.00    +0.000 C 
ATOM     28  C   UNL     1     -58.530 -41.122 -75.976  0.00  0.00    +0.000 C 
ENDBRANCH  24  26
ENDBRANCH  13  24
TORSDOF 5
