REMARK VINA RESULT:    -5.040     15.676     16.800
REMARK INTER + INTRA:          -7.254
REMARK INTER:                  -6.374
REMARK INTRA:                  -0.879
REMARK UNBOUND:                -1.035
REMARK  Name = 
REMARK  6 active torsions:
REMARK  status: ('A' for Active; 'I' for Inactive)
REMARK    1  A    between atoms: C_1  and  C_2
REMARK    2  A    between atoms: C_2  and  C_4
REMARK    3  A    between atoms: C_5  and  S_6
REMARK    4  A    between atoms: S_6  and  C_8
REMARK    5  A    between atoms: C_8  and  C_9
REMARK    6  A    between atoms: C_11  and  C_12
REMARK                            x       y       z     vdW  Elec       q    Type
REMARK                         _______ _______ _______ _____ _____    ______ ____
ROOT
ATOM      1  C   UNL     1     -53.410 -41.624 -78.249  0.00  0.00    +0.000 A 
ATOM      2  C   UNL     1     -54.715 -41.984 -78.275  0.00  0.00    +0.000 A 
ATOM      3  N   UNL     1     -55.239 -42.670 -79.351  0.00  0.00    +0.000 N 
ATOM      4  C   UNL     1     -54.488 -43.082 -80.457  0.00  0.00    +0.000 A 
ATOM      5  C   UNL     1     -55.084 -43.770 -81.528  0.00  0.00    +0.000 A 
ATOM      6 BR   UNL     1     -56.917 -44.266 -81.470  0.00  0.00    +0.000 Br
ATOM      7  C   UNL     1     -54.353 -44.118 -82.662  0.00  0.00    +0.000 A 
ATOM      8  C   UNL     1     -53.008 -43.767 -82.751  0.00  0.00    +0.000 A 
ATOM      9  C   UNL     1     -52.390 -43.078 -81.707  0.00  0.00    +0.000 A 
ATOM     10 CL   UNL     1     -50.723 -42.684 -81.964  0.00  0.00    +0.000 Cl
ATOM     11  C   UNL     1     -53.139 -42.740 -80.562  0.00  0.00    +0.000 A 
ATOM     12  C   UNL     1     -52.543 -42.057 -79.400  0.00  0.00    +0.000 A 
ATOM     13  O   UNL     1     -51.329 -41.896 -79.390  0.00  0.00    +0.000 OA
ATOM     14  H   UNL     1     -56.147 -43.091 -79.212  0.00  0.00    +0.000 HD
ENDROOT
BRANCH   1  16
ATOM     15  C   UNL     1     -52.153 -41.794 -76.017  0.00  0.00    +0.000 C 
ATOM     16  C   UNL     1     -52.715 -40.916 -77.129  0.00  0.00    +0.000 C 
ATOM     17  O   UNL     1     -52.615 -39.718 -77.106  0.00  0.00    +0.000 OA
ENDBRANCH   1  16
BRANCH   2  18
ATOM     18  S   UNL     1     -55.921 -41.531 -76.959  0.00  0.00    +0.000 S 
ATOM     19  O   UNL     1     -56.223 -40.083 -77.239  0.00  0.00    +0.000 OA
BRANCH  18  20
ATOM     20  C   UNL     1     -57.453 -42.464 -77.431  0.00  0.00    +0.000 C 
BRANCH  20  21
ATOM     21  C   UNL     1     -58.386 -41.644 -78.253  0.00  0.00    +0.000 A 
ATOM     22  C   UNL     1     -59.388 -40.738 -77.829  0.00  0.00    +0.000 A 
ATOM     23  C   UNL     1     -59.981 -40.319 -78.993  0.00  0.00    +0.000 A 
ATOM     24  C   UNL     1     -61.101 -39.420 -79.306  0.00  0.00    +0.000 C 
ATOM     25  O   UNL     1     -59.361 -40.903 -80.052  0.00  0.00    +0.000 OA
ATOM     26  N   UNL     1     -58.341 -41.716 -79.594  0.00  0.00    +0.000 NA
ENDBRANCH  20  21
ENDBRANCH  18  20
ENDBRANCH   2  18
TORSDOF 4
