REMARK VINA RESULT:    -6.966      2.635      3.809
REMARK INTER + INTRA:          -9.261
REMARK INTER:                  -8.317
REMARK INTRA:                  -0.944
REMARK UNBOUND:                -0.667
REMARK  Name = 
REMARK  6 active torsions:
REMARK  status: ('A' for Active; 'I' for Inactive)
REMARK    1  A    between atoms: C_1  and  C_2
REMARK    2  A    between atoms: C_2  and  C_4
REMARK    3  A    between atoms: C_5  and  S_6
REMARK    4  A    between atoms: S_6  and  C_8
REMARK    5  A    between atoms: C_8  and  C_9
REMARK    6  A    between atoms: C_11  and  C_12
REMARK                            x       y       z     vdW  Elec       q    Type
REMARK                         _______ _______ _______ _____ _____    ______ ____
ROOT
ATOM      1  C   UNL     1     -55.990 -42.503 -62.874  0.00  0.00    +0.000 A 
ATOM      2  C   UNL     1     -55.652 -41.336 -63.468  0.00  0.00    +0.000 A 
ATOM      3  N   UNL     1     -54.402 -41.092 -64.003  0.00  0.00    +0.000 N 
ATOM      4  C   UNL     1     -53.333 -41.998 -63.894  0.00  0.00    +0.000 A 
ATOM      5  C   UNL     1     -52.089 -41.722 -64.492  0.00  0.00    +0.000 A 
ATOM      6 BR   UNL     1     -51.788 -40.087 -65.412  0.00  0.00    +0.000 Br
ATOM      7  C   UNL     1     -51.044 -42.642 -64.434  0.00  0.00    +0.000 A 
ATOM      8  C   UNL     1     -51.232 -43.855 -63.780  0.00  0.00    +0.000 A 
ATOM      9  C   UNL     1     -52.467 -44.165 -63.200  0.00  0.00    +0.000 A 
ATOM     10 CL   UNL     1     -52.549 -45.712 -62.430  0.00  0.00    +0.000 Cl
ATOM     11  C   UNL     1     -53.533 -43.244 -63.275  0.00  0.00    +0.000 A 
ATOM     12  C   UNL     1     -54.880 -43.504 -62.696  0.00  0.00    +0.000 A 
ATOM     13  O   UNL     1     -55.078 -44.512 -62.029  0.00  0.00    +0.000 OA
ATOM     14  H   UNL     1     -54.146 -40.109 -64.106  0.00  0.00    +0.000 HD
ENDROOT
BRANCH   1  16
ATOM     15  C   UNL     1     -57.697 -42.509 -60.916  0.00  0.00    +0.000 C 
ATOM     16  C   UNL     1     -57.362 -42.836 -62.354  0.00  0.00    +0.000 C 
ATOM     17  O   UNL     1     -58.205 -43.393 -63.056  0.00  0.00    +0.000 OA
ENDBRANCH   1  16
BRANCH   2  18
ATOM     18  S   UNL     1     -56.785 -39.907 -63.453  0.00  0.00    +0.000 S 
ATOM     19  O   UNL     1     -56.572 -39.307 -62.088  0.00  0.00    +0.000 OA
BRANCH  18  20
ATOM     20  C   UNL     1     -55.910 -38.813 -64.627  0.00  0.00    +0.000 C 
BRANCH  20  21
ATOM     21  C   UNL     1     -55.260 -37.662 -63.929  0.00  0.00    +0.000 A 
ATOM     22  C   UNL     1     -55.793 -36.381 -63.626  0.00  0.00    +0.000 A 
ATOM     23  C   UNL     1     -54.802 -35.753 -62.916  0.00  0.00    +0.000 A 
ATOM     24  C   UNL     1     -54.668 -34.429 -62.279  0.00  0.00    +0.000 C 
ATOM     25  O   UNL     1     -53.743 -36.594 -62.796  0.00  0.00    +0.000 OA
ATOM     26  N   UNL     1     -54.026 -37.793 -63.425  0.00  0.00    +0.000 NA
ENDBRANCH  20  21
ENDBRANCH  18  20
ENDBRANCH   2  18
TORSDOF 4
