=
 OpenBabel09172513583D

 26 28  0  0  0  0  0  0  0  0999 V2000
  -56.1610  -42.8560  -76.7490 C   0  0  0  0  0  0  0  0  0  0  0  0
  -55.1710  -43.6820  -76.3460 C   0  0  0  0  0  0  0  0  0  0  0  0
  -55.1670  -45.0460  -76.5820 N   0  0  0  0  0  0  0  0  0  0  0  0
  -56.3200  -45.7140  -77.0280 C   0  0  0  0  0  0  0  0  0  0  0  0
  -56.3790  -47.1190  -77.0470 C   0  0  0  0  0  0  0  0  0  0  0  0
  -54.9250  -48.1660  -76.4160 Br  0  0  0  0  0  0  0  0  0  0  0  0
  -57.5120  -47.7760  -77.5150 C   0  0  0  0  0  3  0  0  0  0  0  0
  -58.5980  -47.0350  -77.9770 C   0  0  0  0  0  3  0  0  0  0  0  0
  -58.5480  -45.6360  -77.9940 C   0  0  0  0  0  0  0  0  0  0  0  0
  -59.9810  -44.8320  -78.5270 Cl  0  0  0  0  0  0  0  0  0  0  0  0
  -57.3950  -44.9720  -77.5460 C   0  0  0  0  0  0  0  0  0  0  0  0
  -57.2230  -43.4930  -77.5920 C   0  0  0  0  0  0  0  0  0  0  0  0
  -57.9100  -42.7990  -78.3340 O   0  0  0  0  0  0  0  0  0  0  0  0
  -54.5960  -45.5810  -75.9260 H   0  0  0  0  0  0  0  0  0  0  0  0
  -55.6520  -40.3780  -77.3620 C   0  0  0  0  0  1  0  0  0  0  0  0
  -56.2510  -41.3940  -76.4180 C   0  0  0  0  0  0  0  0  0  0  0  0
  -56.8150  -41.0020  -75.3900 O   0  0  0  0  0  0  0  0  0  0  0  0
  -53.8230  -43.0800  -75.2980 S   0  0  1  0  0  0  0  0  0  0  0  0
  -53.1300  -44.3390  -74.8550 O   0  0  0  0  0  0  0  0  0  0  0  0
  -52.7390  -42.3410  -76.5760 C   0  0  0  0  0  2  0  0  0  0  0  0
  -51.7600  -41.2680  -76.1620 C   0  0  0  0  0  0  0  0  0  0  0  0
  -50.5460  -41.5430  -75.5230 C   0  0  0  0  0  3  0  0  0  0  0  0
  -49.6480  -40.5140  -75.2280 C   0  0  0  0  0  3  0  0  0  0  0  0
  -49.9360  -39.2000  -75.5900 C   0  0  0  0  0  3  0  0  0  0  0  0
  -51.1260  -38.9140  -76.2530 C   0  0  0  0  0  3  0  0  0  0  0  0
  -52.0270  -39.9400  -76.5410 C   0  0  0  0  0  3  0  0  0  0  0  0
  1 16  1  0  0  0  0
  1  2  2  0  0  0  0
  2 18  1  0  0  0  0
  3  2  1  0  0  0  0
  3 14  1  0  0  0  0
  4  3  1  0  0  0  0
  5  4  1  0  0  0  0
  5  6  1  0  0  0  0
  7  5  2  0  0  0  0
  8  7  1  0  0  0  0
  9  8  2  0  0  0  0
  9 11  1  0  0  0  0
 10  9  1  0  0  0  0
 11  4  2  0  0  0  0
 12 11  1  0  0  0  0
 12  1  1  0  0  0  0
 13 12  2  0  0  0  0
 15 16  1  0  0  0  0
 16 17  2  0  0  0  0
 18 19  2  6  0  0  0
 20 21  1  0  0  0  0
 20 18  1  0  0  0  0
 21 22  1  0  0  0  0
 22 23  2  0  0  0  0
 24 23  1  0  0  0  0
 25 24  2  0  0  0  0
 26 25  1  0  0  0  0
 26 21  2  0  0  0  0
M  END
>  <MODEL>
1

>  <REMARK>
 VINA RESULT:    -7.259      0.000      0.000
 INTER + INTRA:          -9.697
 INTER:                  -8.956
 INTRA:                  -0.741
 UNBOUND:                -0.741
  Name = 
  5 active torsions:
  status: ('A' for Active; 'I' for Inactive)
    1  A    between atoms: C_1  and  C_2
    2  A    between atoms: C_2  and  C_4
    3  A    between atoms: C_5  and  S_6
    4  A    between atoms: S_6  and  C_8
    5  A    between atoms: C_8  and  C_9
                            x       y       z     vdW  Elec       q    Type
                         _______ _______ _______ _____ _____    ______ ____

>  <TORSDO>
F 4

$$$$
