=
 OpenBabel09172510303D

 26 28  0  0  0  0  0  0  0  0999 V2000
  -57.1630  -40.4910  -61.9060 C   0  0  0  0  0  0  0  0  0  0  0  0
  -56.2690  -41.3820  -62.3860 C   0  0  0  0  0  0  0  0  0  0  0  0
  -55.1870  -41.0200  -63.1630 N   0  0  0  0  0  0  0  0  0  0  0  0
  -54.9490  -39.7020  -63.5830 C   0  0  0  0  0  0  0  0  0  0  0  0
  -53.7870  -39.3730  -64.3030 C   0  0  0  0  0  0  0  0  0  0  0  0
  -52.5300  -40.7120  -64.7950 Br  0  0  0  0  0  0  0  0  0  0  0  0
  -53.5140  -38.0570  -64.6640 C   0  0  0  0  0  3  0  0  0  0  0  0
  -54.4040  -37.0470  -64.3100 C   0  0  0  0  0  3  0  0  0  0  0  0
  -55.5570  -37.3440  -63.5750 C   0  0  0  0  0  0  0  0  0  0  0  0
  -56.5650  -35.9890  -63.2030 Cl  0  0  0  0  0  0  0  0  0  0  0  0
  -55.8200  -38.6720  -63.1850 C   0  0  0  0  0  0  0  0  0  0  0  0
  -57.0040  -39.0690  -62.3750 C   0  0  0  0  0  0  0  0  0  0  0  0
  -57.8760  -38.2480  -62.1160 O   0  0  0  0  0  0  0  0  0  0  0  0
  -54.7820  -41.7540  -63.7420 H   0  0  0  0  0  0  0  0  0  0  0  0
  -59.6440  -41.1590  -61.5720 C   0  0  0  0  0  1  0  0  0  0  0  0
  -58.2960  -40.8220  -60.9780 C   0  0  0  0  0  0  0  0  0  0  0  0
  -58.1610  -40.7900  -59.7520 O   0  0  0  0  0  0  0  0  0  0  0  0
  -56.5000  -43.1800  -62.1480 S   0  0  1  0  0  0  0  0  0  0  0  0
  -56.1680  -43.7580  -63.4970 O   0  0  0  0  0  0  0  0  0  0  0  0
  -55.0510  -43.5200  -61.0860 C   0  0  0  0  0  2  0  0  0  0  0  0
  -53.9760  -44.2460  -61.8230 C   0  0  0  0  0  0  0  0  0  0  0  0
  -53.6400  -45.6240  -61.7850 C   0  0  0  0  0  3  0  0  0  0  0  0
  -52.6450  -45.7640  -62.7200 C   0  0  0  0  0  0  0  0  0  0  0  0
  -51.8470  -46.9000  -63.2180 C   0  0  0  0  0  1  0  0  0  0  0  0
  -52.3930  -44.5530  -63.2850 O   0  0  0  0  0  0  0  0  0  0  0  0
  -53.2290  -43.6000  -62.7310 N   0  0  0  0  0  0  0  0  0  0  0  0
  1 16  1  0  0  0  0
  2 18  1  0  0  0  0
  2  1  2  0  0  0  0
  3  2  1  0  0  0  0
  4 11  1  0  0  0  0
  4  3  1  0  0  0  0
  5  4  2  0  0  0  0
  6  5  1  0  0  0  0
  7  8  2  0  0  0  0
  7  5  1  0  0  0  0
  8  9  1  0  0  0  0
  9 10  1  0  0  0  0
  9 11  2  0  0  0  0
 11 12  1  0  0  0  0
 12 13  2  0  0  0  0
 12  1  1  0  0  0  0
 14  3  1  0  0  0  0
 15 16  1  0  0  0  0
 16 17  2  0  0  0  0
 18 19  2  6  0  0  0
 18 20  1  0  0  0  0
 21 22  1  0  0  0  0
 21 20  1  0  0  0  0
 23 22  2  0  0  0  0
 24 23  1  0  0  0  0
 25 26  1  0  0  0  0
 25 23  1  0  0  0  0
 26 21  2  0  0  0  0
M  END
>  <MODEL>
1

>  <REMARK>
 VINA RESULT:    -6.856      0.000      0.000
 INTER + INTRA:          -9.262
 INTER:                  -8.459
 INTRA:                  -0.804
 UNBOUND:                -0.804
  Name = 
  6 active torsions:
  status: ('A' for Active; 'I' for Inactive)
    1  A    between atoms: C_1  and  C_2
    2  A    between atoms: C_2  and  C_4
    3  A    between atoms: C_5  and  S_6
    4  A    between atoms: S_6  and  C_8
    5  A    between atoms: C_8  and  C_9
    6  A    between atoms: C_11  and  C_12
                            x       y       z     vdW  Elec       q    Type
                         _______ _______ _______ _____ _____    ______ ____

>  <TORSDO>
F 4

$$$$
