REMARK VINA RESULT:    -5.334      4.538      5.993
REMARK INTER + INTRA:          -7.623
REMARK INTER:                  -6.607
REMARK INTRA:                  -1.017
REMARK UNBOUND:                -1.042
REMARK  Name = 
REMARK  6 active torsions:
REMARK  status: ('A' for Active; 'I' for Inactive)
REMARK    1  A    between atoms: C_1  and  C_2
REMARK    2  A    between atoms: C_2  and  C_4
REMARK    3  A    between atoms: C_5  and  S_6
REMARK    4  A    between atoms: S_6  and  C_8
REMARK    5  A    between atoms: C_8  and  C_9
REMARK    6  A    between atoms: C_11  and  C_12
REMARK                            x       y       z     vdW  Elec       q    Type
REMARK                         _______ _______ _______ _____ _____    ______ ____
ROOT
ATOM      1  C   UNL     1     -52.528 -41.524 -79.225  0.00  0.00    +0.000 A 
ATOM      2  C   UNL     1     -53.574 -40.694 -79.437  0.00  0.00    +0.000 A 
ATOM      3  N   UNL     1     -54.159 -40.510 -80.674  0.00  0.00    +0.000 N 
ATOM      4  C   UNL     1     -53.657 -41.088 -81.849  0.00  0.00    +0.000 A 
ATOM      5  C   UNL     1     -54.298 -40.878 -83.086  0.00  0.00    +0.000 A 
ATOM      6 BR   UNL     1     -55.817 -39.742 -83.215  0.00  0.00    +0.000 Br
ATOM      7  C   UNL     1     -53.842 -41.496 -84.245  0.00  0.00    +0.000 A 
ATOM      8  C   UNL     1     -52.739 -42.343 -84.186  0.00  0.00    +0.000 A 
ATOM      9  C   UNL     1     -52.096 -42.585 -82.966  0.00  0.00    +0.000 A 
ATOM     10 CL   UNL     1     -50.735 -43.648 -83.052  0.00  0.00    +0.000 Cl
ATOM     11  C   UNL     1     -52.568 -41.973 -81.786  0.00  0.00    +0.000 A 
ATOM     12  C   UNL     1     -51.950 -42.187 -80.448  0.00  0.00    +0.000 A 
ATOM     13  O   UNL     1     -50.941 -42.875 -80.344  0.00  0.00    +0.000 OA
ATOM     14  H   UNL     1     -54.694 -39.649 -80.792  0.00  0.00    +0.000 HD
ENDROOT
BRANCH   1  16
ATOM     15  C   UNL     1     -50.634 -41.056 -77.504  0.00  0.00    +0.000 C 
ATOM     16  C   UNL     1     -51.903 -41.788 -77.879  0.00  0.00    +0.000 C 
ATOM     17  O   UNL     1     -52.384 -42.599 -77.090  0.00  0.00    +0.000 OA
ENDBRANCH   1  16
BRANCH   2  18
ATOM     18  S   UNL     1     -54.218 -39.624 -78.109  0.00  0.00    +0.000 S 
ATOM     19  O   UNL     1     -54.443 -38.303 -78.799  0.00  0.00    +0.000 OA
BRANCH  18  20
ATOM     20  C   UNL     1     -55.873 -40.372 -77.905  0.00  0.00    +0.000 C 
BRANCH  20  21
ATOM     21  C   UNL     1     -55.832 -41.674 -77.175  0.00  0.00    +0.000 A 
ATOM     22  C   UNL     1     -55.984 -42.999 -77.658  0.00  0.00    +0.000 A 
ATOM     23  C   UNL     1     -55.816 -43.795 -76.553  0.00  0.00    +0.000 A 
ATOM     24  C   UNL     1     -55.872 -45.247 -76.306  0.00  0.00    +0.000 C 
ATOM     25  O   UNL     1     -55.545 -43.008 -75.478  0.00  0.00    +0.000 OA
ATOM     26  N   UNL     1     -55.546 -41.680 -75.864  0.00  0.00    +0.000 NA
ENDBRANCH  20  21
ENDBRANCH  18  20
ENDBRANCH   2  18
TORSDOF 4
