REMARK VINA RESULT:    -5.063     12.833     14.161
REMARK INTER + INTRA:          -7.328
REMARK INTER:                  -6.565
REMARK INTRA:                  -0.763
REMARK UNBOUND:                -1.082
REMARK  Name = 
REMARK  6 active torsions:
REMARK  status: ('A' for Active; 'I' for Inactive)
REMARK    1  A    between atoms: C_1  and  C_2
REMARK    2  A    between atoms: C_2  and  C_4
REMARK    3  A    between atoms: C_5  and  S_6
REMARK    4  A    between atoms: S_6  and  C_8
REMARK    5  A    between atoms: C_8  and  C_9
REMARK    6  A    between atoms: C_11  and  C_12
REMARK                            x       y       z     vdW  Elec       q    Type
REMARK                         _______ _______ _______ _____ _____    ______ ____
ROOT
ATOM      1  C   UNL     1     -54.816 -42.626 -77.438  0.00  0.00    +0.000 A 
ATOM      2  C   UNL     1     -55.867 -43.208 -78.055  0.00  0.00    +0.000 A 
ATOM      3  N   UNL     1     -56.267 -44.509 -77.818  0.00  0.00    +0.000 N 
ATOM      4  C   UNL     1     -55.527 -45.398 -77.023  0.00  0.00    +0.000 A 
ATOM      5  C   UNL     1     -55.950 -46.729 -76.848  0.00  0.00    +0.000 A 
ATOM      6 BR   UNL     1     -57.486 -47.392 -77.750  0.00  0.00    +0.000 Br
ATOM      7  C   UNL     1     -55.252 -47.601 -76.017  0.00  0.00    +0.000 A 
ATOM      8  C   UNL     1     -54.124 -47.148 -75.339  0.00  0.00    +0.000 A 
ATOM      9  C   UNL     1     -53.695 -45.822 -75.478  0.00  0.00    +0.000 A 
ATOM     10 CL   UNL     1     -52.274 -45.412 -74.582  0.00  0.00    +0.000 Cl
ATOM     11  C   UNL     1     -54.408 -44.934 -76.309  0.00  0.00    +0.000 A 
ATOM     12  C   UNL     1     -54.020 -43.509 -76.509  0.00  0.00    +0.000 A 
ATOM     13  O   UNL     1     -53.027 -43.063 -75.952  0.00  0.00    +0.000 OA
ATOM     14  H   UNL     1     -56.811 -44.943 -78.567  0.00  0.00    +0.000 HD
ENDROOT
BRANCH   1  16
ATOM     15  C   UNL     1     -53.236 -40.908 -78.596  0.00  0.00    +0.000 C 
ATOM     16  C   UNL     1     -54.378 -41.199 -77.650  0.00  0.00    +0.000 C 
ATOM     17  O   UNL     1     -54.918 -40.263 -77.058  0.00  0.00    +0.000 OA
ENDBRANCH   1  16
BRANCH   2  18
ATOM     18  S   UNL     1     -56.764 -42.363 -79.399  0.00  0.00    +0.000 S 
ATOM     19  O   UNL     1     -55.777 -42.373 -80.537  0.00  0.00    +0.000 OA
BRANCH  18  20
ATOM     20  C   UNL     1     -57.999 -43.654 -79.794  0.00  0.00    +0.000 C 
BRANCH  20  21
ATOM     21  C   UNL     1     -59.262 -43.488 -79.015  0.00  0.00    +0.000 A 
ATOM     22  C   UNL     1     -59.867 -44.346 -78.059  0.00  0.00    +0.000 A 
ATOM     23  C   UNL     1     -61.008 -43.687 -77.673  0.00  0.00    +0.000 A 
ATOM     24  C   UNL     1     -62.131 -44.004 -76.772  0.00  0.00    +0.000 C 
ATOM     25  O   UNL     1     -61.065 -42.489 -78.311  0.00  0.00    +0.000 OA
ATOM     26  N   UNL     1     -59.971 -42.356 -79.147  0.00  0.00    +0.000 NA
ENDBRANCH  20  21
ENDBRANCH  18  20
ENDBRANCH   2  18
TORSDOF 4
