=
 OpenBabel09162516043D

 26 28  0  0  0  0  0  0  0  0999 V2000
  -56.1190  -42.8530  -76.7030 C   0  0  0  0  0  0  0  0  0  0  0  0
  -55.1320  -43.6760  -76.2820 C   0  0  0  0  0  0  0  0  0  0  0  0
  -55.1720  -45.0480  -76.4360 N   0  0  0  0  0  0  0  0  0  0  0  0
  -56.2990  -45.7290  -76.9240 C   0  0  0  0  0  0  0  0  0  0  0  0
  -56.3050  -47.1320  -77.0400 C   0  0  0  0  0  0  0  0  0  0  0  0
  -54.8210  -48.1650  -76.4580 Br  0  0  0  0  0  0  0  0  0  0  0  0
  -57.4000  -47.8070  -77.5770 C   0  0  0  0  0  3  0  0  0  0  0  0
  -58.5030  -47.0830  -78.0170 C   0  0  0  0  0  3  0  0  0  0  0  0
  -58.5170  -45.6830  -77.9320 C   0  0  0  0  0  0  0  0  0  0  0  0
  -59.9580  -44.9330  -78.5240 Cl  0  0  0  0  0  0  0  0  0  0  0  0
  -57.4060  -45.0010  -77.4020 C   0  0  0  0  0  0  0  0  0  0  0  0
  -57.3430  -43.5200  -77.2740 C   0  0  0  0  0  0  0  0  0  0  0  0
  -58.3110  -42.8420  -77.5880 O   0  0  0  0  0  0  0  0  0  0  0  0
  -54.5680  -45.5850  -75.8100 H   0  0  0  0  0  0  0  0  0  0  0  0
  -55.5050  -40.5430  -77.7360 C   0  0  0  0  0  1  0  0  0  0  0  0
  -56.0910  -41.3490  -76.5980 C   0  0  0  0  0  0  0  0  0  0  0  0
  -56.5120  -40.7600  -75.6020 O   0  0  0  0  0  0  0  0  0  0  0  0
  -53.7270  -43.0380  -75.3010 S   0  0  1  0  0  0  0  0  0  0  0  0
  -53.0770  -44.2870  -74.7660 O   0  0  0  0  0  0  0  0  0  0  0  0
  -52.6470  -42.4460  -76.6520 C   0  0  0  0  0  2  0  0  0  0  0  0
  -51.6590  -41.4140  -76.2040 C   0  0  0  0  0  0  0  0  0  0  0  0
  -51.6390  -40.0070  -76.4040 C   0  0  0  0  0  3  0  0  0  0  0  0
  -50.5360  -39.5720  -75.7130 C   0  0  0  0  0  0  0  0  0  0  0  0
  -49.9090  -38.2530  -75.4870 C   0  0  0  0  0  1  0  0  0  0  0  0
  -49.9360  -40.6350  -75.1200 O   0  0  0  0  0  0  0  0  0  0  0  0
  -50.6370  -41.7890  -75.4190 N   0  0  0  0  0  0  0  0  0  0  0  0
  1 16  1  0  0  0  0
  1  2  2  0  0  0  0
  2 18  1  0  0  0  0
  3  2  1  0  0  0  0
  3 14  1  0  0  0  0
  4  3  1  0  0  0  0
  5  4  1  0  0  0  0
  5  6  1  0  0  0  0
  7  5  2  0  0  0  0
  8  9  2  0  0  0  0
  8  7  1  0  0  0  0
  9 11  1  0  0  0  0
 10  9  1  0  0  0  0
 11 12  1  0  0  0  0
 11  4  2  0  0  0  0
 12  1  1  0  0  0  0
 13 12  2  0  0  0  0
 15 16  1  0  0  0  0
 16 17  2  0  0  0  0
 18 19  2  6  0  0  0
 20 21  1  0  0  0  0
 20 18  1  0  0  0  0
 21 26  2  0  0  0  0
 22 21  1  0  0  0  0
 22 23  2  0  0  0  0
 23 24  1  0  0  0  0
 23 25  1  0  0  0  0
 26 25  1  0  0  0  0
M  END
>  <MODEL>
1

>  <REMARK>
 VINA RESULT:    -6.774      0.000      0.000
 INTER + INTRA:          -9.028
 INTER:                  -8.358
 INTRA:                  -0.670
 UNBOUND:                -0.670
  Name = 
  6 active torsions:
  status: ('A' for Active; 'I' for Inactive)
    1  A    between atoms: C_1  and  C_2
    2  A    between atoms: C_2  and  C_4
    3  A    between atoms: C_5  and  S_6
    4  A    between atoms: S_6  and  C_8
    5  A    between atoms: C_8  and  C_9
    6  A    between atoms: C_11  and  C_12
                            x       y       z     vdW  Elec       q    Type
                         _______ _______ _______ _____ _____    ______ ____

>  <TORSDO>
F 4

$$$$
