REMARK VINA RESULT:    -6.468     13.410     14.551
REMARK INTER + INTRA:          -8.911
REMARK INTER:                  -8.041
REMARK INTRA:                  -0.870
REMARK UNBOUND:                -0.930
REMARK  Name = 
REMARK  6 active torsions:
REMARK  status: ('A' for Active; 'I' for Inactive)
REMARK    1  A    between atoms: C_1  and  C_2
REMARK    2  A    between atoms: C_2  and  C_4
REMARK    3  A    between atoms: C_5  and  S_6
REMARK    4  A    between atoms: S_6  and  C_8
REMARK    5  A    between atoms: C_8  and  C_9
REMARK    6  A    between atoms: C_11  and  C_12
REMARK                            x       y       z     vdW  Elec       q    Type
REMARK                         _______ _______ _______ _____ _____    ______ ____
ROOT
ATOM      1  C   UNL     1     -54.381 -42.376 -77.205  0.00  0.00    +0.000 A 
ATOM      2  C   UNL     1     -55.514 -42.722 -77.859  0.00  0.00    +0.000 A 
ATOM      3  N   UNL     1     -56.187 -43.913 -77.643  0.00  0.00    +0.000 N 
ATOM      4  C   UNL     1     -55.577 -44.982 -76.959  0.00  0.00    +0.000 A 
ATOM      5  C   UNL     1     -56.143 -46.267 -76.968  0.00  0.00    +0.000 A 
ATOM      6 BR   UNL     1     -57.729 -46.628 -77.948  0.00  0.00    +0.000 Br
ATOM      7  C   UNL     1     -55.544 -47.314 -76.271  0.00  0.00    +0.000 A 
ATOM      8  C   UNL     1     -54.371 -47.082 -75.552  0.00  0.00    +0.000 A 
ATOM      9  C   UNL     1     -53.808 -45.797 -75.501  0.00  0.00    +0.000 A 
ATOM     10 CL   UNL     1     -52.323 -45.649 -74.638  0.00  0.00    +0.000 Cl
ATOM     11  C   UNL     1     -54.431 -44.741 -76.182  0.00  0.00    +0.000 A 
ATOM     12  C   UNL     1     -53.959 -43.330 -76.125  0.00  0.00    +0.000 A 
ATOM     13  O   UNL     1     -53.269 -42.933 -75.192  0.00  0.00    +0.000 OA
ATOM     14  H   UNL     1     -56.770 -44.207 -78.432  0.00  0.00    +0.000 HD
ENDROOT
BRANCH   1  16
ATOM     15  C   UNL     1     -52.342 -41.242 -78.359  0.00  0.00    +0.000 C 
ATOM     16  C   UNL     1     -53.565 -41.148 -77.467  0.00  0.00    +0.000 C 
ATOM     17  O   UNL     1     -53.877 -40.063 -76.977  0.00  0.00    +0.000 OA
ENDBRANCH   1  16
BRANCH   2  18
ATOM     18  S   UNL     1     -56.186 -41.707 -79.218  0.00  0.00    +0.000 S 
ATOM     19  O   UNL     1     -56.306 -42.689 -80.353  0.00  0.00    +0.000 OA
BRANCH  18  20
ATOM     20  C   UNL     1     -57.878 -41.494 -78.544  0.00  0.00    +0.000 C 
BRANCH  20  21
ATOM     21  C   UNL     1     -57.938 -41.362 -77.057  0.00  0.00    +0.000 A 
ATOM     22  C   UNL     1     -57.488 -40.328 -76.196  0.00  0.00    +0.000 A 
ATOM     23  C   UNL     1     -57.897 -40.712 -74.942  0.00  0.00    +0.000 A 
ATOM     24  C   UNL     1     -57.787 -40.141 -73.587  0.00  0.00    +0.000 C 
ATOM     25  O   UNL     1     -58.563 -41.893 -75.039  0.00  0.00    +0.000 OA
ATOM     26  N   UNL     1     -58.597 -42.299 -76.356  0.00  0.00    +0.000 NA
ENDBRANCH  20  21
ENDBRANCH  18  20
ENDBRANCH   2  18
TORSDOF 4
