REMARK VINA RESULT:    -6.347      3.333      5.536
REMARK INTER + INTRA:          -9.073
REMARK INTER:                  -8.081
REMARK INTRA:                  -0.991
REMARK UNBOUND:                -0.870
REMARK  Name = 
REMARK  8 active torsions:
REMARK  status: ('A' for Active; 'I' for Inactive)
REMARK    1  A    between atoms: C_1  and  C_2
REMARK    2  A    between atoms: C_4  and  C_5
REMARK    3  A    between atoms: C_5  and  S_6
REMARK    4  A    between atoms: S_6  and  C_8
REMARK    5  A    between atoms: C_20  and  C_21
REMARK    6  A    between atoms: C_21  and  C_23
REMARK    7  A    between atoms: C_23  and  C_24
REMARK    8  A    between atoms: C_23  and  C_25
REMARK                            x       y       z     vdW  Elec       q    Type
REMARK                         _______ _______ _______ _____ _____    ______ ____
ROOT
ATOM      1  C   UNL     1     -57.339 -41.757 -77.675  0.00  0.00    +0.000 A 
ATOM      2  N   UNL     1     -56.854 -41.348 -78.914  0.00  0.00    +0.000 N 
ATOM      3  C   UNL     1     -55.501 -41.512 -79.269  0.00  0.00    +0.000 A 
ATOM      4  C   UNL     1     -55.072 -41.505 -80.609  0.00  0.00    +0.000 A 
ATOM      5 BR   UNL     1     -56.322 -41.438 -82.034  0.00  0.00    +0.000 Br
ATOM      6  C   UNL     1     -53.714 -41.592 -80.930  0.00  0.00    +0.000 A 
ATOM      7  C   UNL     1     -52.766 -41.690 -79.916  0.00  0.00    +0.000 A 
ATOM      8  C   UNL     1     -53.174 -41.706 -78.570  0.00  0.00    +0.000 A 
ATOM      9 CL   UNL     1     -51.915 -41.904 -77.405  0.00  0.00    +0.000 Cl
ATOM     10  C   UNL     1     -54.544 -41.612 -78.246  0.00  0.00    +0.000 A 
ATOM     11  C   UNL     1     -55.073 -41.586 -76.858  0.00  0.00    +0.000 A 
ATOM     12  O   UNL     1     -54.356 -41.219 -75.933  0.00  0.00    +0.000 OA
ATOM     13  C   UNL     1     -56.522 -42.004 -76.623  0.00  0.00    +0.000 A 
ATOM     14  H   UNL     1     -57.536 -41.439 -79.680  0.00  0.00    +0.000 HD
ENDROOT
BRANCH   1  15
ATOM     15  S   UNL     1     -59.135 -42.112 -77.741  0.00  0.00    +0.000 S 
ATOM     16  O   UNL     1     -59.206 -43.615 -77.708  0.00  0.00    +0.000 OA
BRANCH  15  17
ATOM     17  C   UNL     1     -59.614 -41.547 -79.409  0.00  0.00    +0.000 C 
BRANCH  17  21
ATOM     18  C   UNL     1     -61.916 -36.957 -78.752  0.00  0.00    +0.000 C 
ATOM     19  C   UNL     1     -61.374 -38.286 -79.110  0.00  0.00    +0.000 A 
ATOM     20  C   UNL     1     -60.367 -39.091 -78.627  0.00  0.00    +0.000 A 
ATOM     21  C   UNL     1     -60.412 -40.265 -79.433  0.00  0.00    +0.000 A 
ATOM     22  N   UNL     1     -61.382 -40.147 -80.356  0.00  0.00    +0.000 NA
ATOM     23  O   UNL     1     -61.979 -38.918 -80.149  0.00  0.00    +0.000 OA
ENDBRANCH  17  21
ENDBRANCH  15  17
ENDBRANCH   1  15
BRANCH  13  24
ATOM     24  C   UNL     1     -56.834 -42.658 -75.296  0.00  0.00    +0.000 C 
ATOM     25  O   UNL     1     -56.653 -43.865 -75.143  0.00  0.00    +0.000 OA
BRANCH  24  26
ATOM     26  C   UNL     1     -57.439 -41.839 -74.154  0.00  0.00    +0.000 C 
ATOM     27  C   UNL     1     -58.899 -42.209 -73.904  0.00  0.00    +0.000 C 
ATOM     28  C   UNL     1     -56.629 -41.973 -72.862  0.00  0.00    +0.000 C 
ENDBRANCH  24  26
ENDBRANCH  13  24
TORSDOF 5
