REMARK VINA RESULT:    -5.986     12.827     13.956
REMARK INTER + INTRA:          -8.357
REMARK INTER:                  -7.307
REMARK INTRA:                  -1.049
REMARK UNBOUND:                -0.971
REMARK  Name = 
REMARK  6 active torsions:
REMARK  status: ('A' for Active; 'I' for Inactive)
REMARK    1  A    between atoms: C_1  and  C_2
REMARK    2  A    between atoms: C_2  and  C_4
REMARK    3  A    between atoms: C_5  and  S_6
REMARK    4  A    between atoms: S_6  and  C_8
REMARK    5  A    between atoms: C_8  and  C_9
REMARK    6  A    between atoms: C_11  and  C_12
REMARK                            x       y       z     vdW  Elec       q    Type
REMARK                         _______ _______ _______ _____ _____    ______ ____
ROOT
ATOM      1  C   UNL     1     -54.687 -43.250 -75.287  0.00  0.00    +0.000 A 
ATOM      2  C   UNL     1     -55.443 -43.570 -76.361  0.00  0.00    +0.000 A 
ATOM      3  N   UNL     1     -56.808 -43.362 -76.418  0.00  0.00    +0.000 N 
ATOM      4  C   UNL     1     -57.558 -42.901 -75.322  0.00  0.00    +0.000 A 
ATOM      5  C   UNL     1     -58.943 -42.681 -75.441  0.00  0.00    +0.000 A 
ATOM      6 BR   UNL     1     -59.859 -43.058 -77.061  0.00  0.00    +0.000 Br
ATOM      7  C   UNL     1     -59.683 -42.175 -74.375  0.00  0.00    +0.000 A 
ATOM      8  C   UNL     1     -59.043 -41.879 -73.175  0.00  0.00    +0.000 A 
ATOM      9  C   UNL     1     -57.661 -42.064 -73.040  0.00  0.00    +0.000 A 
ATOM     10 CL   UNL     1     -57.013 -41.655 -71.491  0.00  0.00    +0.000 Cl
ATOM     11  C   UNL     1     -56.907 -42.551 -74.127  0.00  0.00    +0.000 A 
ATOM     12  C   UNL     1     -55.430 -42.750 -74.077  0.00  0.00    +0.000 A 
ATOM     13  O   UNL     1     -54.819 -42.545 -73.035  0.00  0.00    +0.000 OA
ATOM     14  H   UNL     1     -57.316 -43.938 -77.090  0.00  0.00    +0.000 HD
ENDROOT
BRANCH   1  16
ATOM     15  C   UNL     1     -52.610 -44.695 -74.702  0.00  0.00    +0.000 C 
ATOM     16  C   UNL     1     -53.190 -43.397 -75.221  0.00  0.00    +0.000 C 
ATOM     17  O   UNL     1     -52.432 -42.484 -75.546  0.00  0.00    +0.000 OA
ENDBRANCH   1  16
BRANCH   2  18
ATOM     18  S   UNL     1     -54.737 -44.465 -77.785  0.00  0.00    +0.000 S 
ATOM     19  O   UNL     1     -55.758 -45.535 -78.065  0.00  0.00    +0.000 OA
BRANCH  18  20
ATOM     20  C   UNL     1     -54.972 -43.195 -79.080  0.00  0.00    +0.000 C 
BRANCH  20  21
ATOM     21  C   UNL     1     -54.169 -41.968 -78.802  0.00  0.00    +0.000 A 
ATOM     22  C   UNL     1     -54.615 -40.665 -78.456  0.00  0.00    +0.000 A 
ATOM     23  C   UNL     1     -53.462 -39.948 -78.249  0.00  0.00    +0.000 A 
ATOM     24  C   UNL     1     -53.165 -38.554 -77.869  0.00  0.00    +0.000 C 
ATOM     25  O   UNL     1     -52.392 -40.763 -78.448  0.00  0.00    +0.000 OA
ATOM     26  N   UNL     1     -52.830 -42.031 -78.789  0.00  0.00    +0.000 NA
ENDBRANCH  20  21
ENDBRANCH  18  20
ENDBRANCH   2  18
TORSDOF 4
