REMARK VINA RESULT:    -5.407     22.922     24.969
REMARK INTER + INTRA:          -7.431
REMARK INTER:                  -6.682
REMARK INTRA:                  -0.749
REMARK UNBOUND:                -0.760
REMARK  Name = 
REMARK  6 active torsions:
REMARK  status: ('A' for Active; 'I' for Inactive)
REMARK    1  A    between atoms: C_1  and  C_2
REMARK    2  A    between atoms: C_2  and  C_4
REMARK    3  A    between atoms: C_5  and  S_6
REMARK    4  A    between atoms: S_6  and  C_8
REMARK    5  A    between atoms: C_8  and  C_9
REMARK    6  A    between atoms: C_11  and  C_12
REMARK                            x       y       z     vdW  Elec       q    Type
REMARK                         _______ _______ _______ _____ _____    ______ ____
ROOT
ATOM      1  C   UNL     1     -66.218 -34.998 -85.342  0.00  0.00    +0.000 A 
ATOM      2  C   UNL     1     -66.444 -35.989 -84.445  0.00  0.00    +0.000 A 
ATOM      3  N   UNL     1     -67.503 -35.979 -83.561  0.00  0.00    +0.000 N 
ATOM      4  C   UNL     1     -68.398 -34.904 -83.448  0.00  0.00    +0.000 A 
ATOM      5  C   UNL     1     -69.502 -34.974 -82.577  0.00  0.00    +0.000 A 
ATOM      6 BR   UNL     1     -69.796 -36.505 -81.492  0.00  0.00    +0.000 Br
ATOM      7  C   UNL     1     -70.422 -33.930 -82.498  0.00  0.00    +0.000 A 
ATOM      8  C   UNL     1     -70.245 -32.796 -83.287  0.00  0.00    +0.000 A 
ATOM      9  C   UNL     1     -69.167 -32.714 -84.179  0.00  0.00    +0.000 A 
ATOM     10 CL   UNL     1     -69.077 -31.243 -85.083  0.00  0.00    +0.000 Cl
ATOM     11  C   UNL     1     -68.258 -33.783 -84.286  0.00  0.00    +0.000 A 
ATOM     12  C   UNL     1     -67.121 -33.797 -85.244  0.00  0.00    +0.000 A 
ATOM     13  O   UNL     1     -66.887 -32.813 -85.936  0.00  0.00    +0.000 OA
ATOM     14  H   UNL     1     -67.401 -36.565 -82.733  0.00  0.00    +0.000 HD
ENDROOT
BRANCH   1  16
ATOM     15  C   UNL     1     -65.336 -35.825 -87.635  0.00  0.00    +0.000 C 
ATOM     16  C   UNL     1     -65.129 -35.009 -86.379  0.00  0.00    +0.000 C 
ATOM     17  O   UNL     1     -64.067 -34.403 -86.215  0.00  0.00    +0.000 OA
ENDBRANCH   1  16
BRANCH   2  18
ATOM     18  S   UNL     1     -65.266 -37.367 -84.244  0.00  0.00    +0.000 S 
ATOM     19  O   UNL     1     -63.983 -36.678 -83.865  0.00  0.00    +0.000 OA
BRANCH  18  20
ATOM     20  C   UNL     1     -65.926 -38.088 -82.699  0.00  0.00    +0.000 C 
BRANCH  20  21
ATOM     21  C   UNL     1     -65.193 -37.594 -81.498  0.00  0.00    +0.000 A 
ATOM     22  C   UNL     1     -63.953 -38.033 -80.968  0.00  0.00    +0.000 A 
ATOM     23  C   UNL     1     -63.703 -37.179 -79.921  0.00  0.00    +0.000 A 
ATOM     24  C   UNL     1     -62.608 -37.032 -78.945  0.00  0.00    +0.000 C 
ATOM     25  O   UNL     1     -64.727 -36.288 -79.822  0.00  0.00    +0.000 OA
ATOM     26  N   UNL     1     -65.659 -36.541 -80.812  0.00  0.00    +0.000 NA
ENDBRANCH  20  21
ENDBRANCH  18  20
ENDBRANCH   2  18
TORSDOF 4
