REMARK VINA RESULT:    -6.186     13.195     15.527
REMARK INTER + INTRA:          -8.300
REMARK INTER:                  -7.345
REMARK INTRA:                  -0.955
REMARK UNBOUND:                -0.667
REMARK  Name = 
REMARK  6 active torsions:
REMARK  status: ('A' for Active; 'I' for Inactive)
REMARK    1  A    between atoms: C_1  and  C_2
REMARK    2  A    between atoms: C_2  and  C_4
REMARK    3  A    between atoms: C_5  and  S_6
REMARK    4  A    between atoms: S_6  and  C_8
REMARK    5  A    between atoms: C_8  and  C_9
REMARK    6  A    between atoms: C_11  and  C_12
REMARK                            x       y       z     vdW  Elec       q    Type
REMARK                         _______ _______ _______ _____ _____    ______ ____
ROOT
ATOM      1  C   UNL     1     -53.353 -41.904 -78.091  0.00  0.00    +0.000 A 
ATOM      2  C   UNL     1     -54.683 -41.715 -78.242  0.00  0.00    +0.000 A 
ATOM      3  N   UNL     1     -55.317 -41.743 -79.469  0.00  0.00    +0.000 N 
ATOM      4  C   UNL     1     -54.626 -41.873 -80.685  0.00  0.00    +0.000 A 
ATOM      5  C   UNL     1     -55.320 -41.938 -81.909  0.00  0.00    +0.000 A 
ATOM      6 BR   UNL     1     -57.213 -41.785 -81.967  0.00  0.00    +0.000 Br
ATOM      7  C   UNL     1     -54.641 -42.122 -83.111  0.00  0.00    +0.000 A 
ATOM      8  C   UNL     1     -53.256 -42.251 -83.106  0.00  0.00    +0.000 A 
ATOM      9  C   UNL     1     -52.544 -42.217 -81.902  0.00  0.00    +0.000 A 
ATOM     10 CL   UNL     1     -50.831 -42.398 -82.056  0.00  0.00    +0.000 Cl
ATOM     11  C   UNL     1     -53.230 -42.050 -80.681  0.00  0.00    +0.000 A 
ATOM     12  C   UNL     1     -52.550 -42.017 -79.358  0.00  0.00    +0.000 A 
ATOM     13  O   UNL     1     -51.326 -42.032 -79.297  0.00  0.00    +0.000 OA
ATOM     14  H   UNL     1     -56.217 -41.262 -79.517  0.00  0.00    +0.000 HD
ENDROOT
BRANCH   1  16
ATOM     15  C   UNL     1     -51.916 -40.731 -76.272  0.00  0.00    +0.000 C 
ATOM     16  C   UNL     1     -52.640 -41.963 -76.767  0.00  0.00    +0.000 C 
ATOM     17  O   UNL     1     -52.605 -42.992 -76.093  0.00  0.00    +0.000 OA
ENDBRANCH   1  16
BRANCH   2  18
ATOM     18  S   UNL     1     -55.735 -41.227 -76.834  0.00  0.00    +0.000 S 
ATOM     19  O   UNL     1     -56.490 -40.034 -77.358  0.00  0.00    +0.000 OA
BRANCH  18  20
ATOM     20  C   UNL     1     -56.920 -42.619 -76.843  0.00  0.00    +0.000 C 
BRANCH  20  21
ATOM     21  C   UNL     1     -56.220 -43.939 -76.799  0.00  0.00    +0.000 A 
ATOM     22  C   UNL     1     -55.681 -44.630 -75.682  0.00  0.00    +0.000 A 
ATOM     23  C   UNL     1     -55.227 -45.818 -76.197  0.00  0.00    +0.000 A 
ATOM     24  C   UNL     1     -54.575 -47.011 -75.622  0.00  0.00    +0.000 C 
ATOM     25  O   UNL     1     -55.475 -45.846 -77.531  0.00  0.00    +0.000 OA
ATOM     26  N   UNL     1     -56.101 -44.672 -77.914  0.00  0.00    +0.000 NA
ENDBRANCH  20  21
ENDBRANCH  18  20
ENDBRANCH   2  18
TORSDOF 4
