REMARK VINA RESULT:    -5.164      3.812      7.282
REMARK INTER + INTRA:          -7.227
REMARK INTER:                  -6.245
REMARK INTRA:                  -0.982
REMARK UNBOUND:                -0.856
REMARK  Name = 
REMARK  6 active torsions:
REMARK  status: ('A' for Active; 'I' for Inactive)
REMARK    1  A    between atoms: C_1  and  C_2
REMARK    2  A    between atoms: C_2  and  C_4
REMARK    3  A    between atoms: C_5  and  S_6
REMARK    4  A    between atoms: S_6  and  C_8
REMARK    5  A    between atoms: C_8  and  C_9
REMARK    6  A    between atoms: C_11  and  C_12
REMARK                            x       y       z     vdW  Elec       q    Type
REMARK                         _______ _______ _______ _____ _____    ______ ____
ROOT
ATOM      1  C   UNL     1     -56.035 -42.266 -63.101  0.00  0.00    +0.000 A 
ATOM      2  C   UNL     1     -56.753 -41.509 -62.243  0.00  0.00    +0.000 A 
ATOM      3  N   UNL     1     -56.634 -41.618 -60.871  0.00  0.00    +0.000 N 
ATOM      4  C   UNL     1     -55.840 -42.593 -60.245  0.00  0.00    +0.000 A 
ATOM      5  C   UNL     1     -55.723 -42.642 -58.846  0.00  0.00    +0.000 A 
ATOM      6 BR   UNL     1     -56.693 -41.435 -57.744  0.00  0.00    +0.000 Br
ATOM      7  C   UNL     1     -54.887 -43.571 -58.225  0.00  0.00    +0.000 A 
ATOM      8  C   UNL     1     -54.160 -44.468 -58.998  0.00  0.00    +0.000 A 
ATOM      9  C   UNL     1     -54.249 -44.436 -60.392  0.00  0.00    +0.000 A 
ATOM     10 CL   UNL     1     -53.310 -45.635 -61.214  0.00  0.00    +0.000 Cl
ATOM     11  C   UNL     1     -55.067 -43.474 -61.020  0.00  0.00    +0.000 A 
ATOM     12  C   UNL     1     -55.146 -43.319 -62.491  0.00  0.00    +0.000 A 
ATOM     13  O   UNL     1     -54.487 -44.056 -63.212  0.00  0.00    +0.000 OA
ATOM     14  H   UNL     1     -57.350 -41.175 -60.301  0.00  0.00    +0.000 HD
ENDROOT
BRANCH   1  16
ATOM     15  C   UNL     1     -57.038 -42.936 -65.403  0.00  0.00    +0.000 C 
ATOM     16  C   UNL     1     -56.046 -42.130 -64.601  0.00  0.00    +0.000 C 
ATOM     17  O   UNL     1     -55.247 -41.407 -65.182  0.00  0.00    +0.000 OA
ENDBRANCH   1  16
BRANCH   2  18
ATOM     18  S   UNL     1     -58.039 -40.350 -62.844  0.00  0.00    +0.000 S 
ATOM     19  O   UNL     1     -59.013 -40.266 -61.701  0.00  0.00    +0.000 OA
BRANCH  18  20
ATOM     20  C   UNL     1     -57.093 -38.784 -62.810  0.00  0.00    +0.000 C 
BRANCH  20  21
ATOM     21  C   UNL     1     -57.314 -38.021 -61.545  0.00  0.00    +0.000 A 
ATOM     22  C   UNL     1     -58.201 -36.940 -61.299  0.00  0.00    +0.000 A 
ATOM     23  C   UNL     1     -58.058 -36.669 -59.958  0.00  0.00    +0.000 A 
ATOM     24  C   UNL     1     -58.657 -35.692 -59.026  0.00  0.00    +0.000 C 
ATOM     25  O   UNL     1     -57.149 -37.533 -59.429  0.00  0.00    +0.000 OA
ATOM     26  N   UNL     1     -56.690 -38.387 -60.419  0.00  0.00    +0.000 NA
ENDBRANCH  20  21
ENDBRANCH  18  20
ENDBRANCH   2  18
TORSDOF 4
