REMARK VINA RESULT:    -6.067     14.833     17.821
REMARK INTER + INTRA:          -8.416
REMARK INTER:                  -7.635
REMARK INTRA:                  -0.781
REMARK UNBOUND:                -0.930
REMARK  Name = 
REMARK  6 active torsions:
REMARK  status: ('A' for Active; 'I' for Inactive)
REMARK    1  A    between atoms: C_1  and  C_2
REMARK    2  A    between atoms: C_2  and  C_4
REMARK    3  A    between atoms: C_5  and  S_6
REMARK    4  A    between atoms: S_6  and  C_8
REMARK    5  A    between atoms: C_8  and  C_9
REMARK    6  A    between atoms: C_11  and  C_12
REMARK                            x       y       z     vdW  Elec       q    Type
REMARK                         _______ _______ _______ _____ _____    ______ ____
ROOT
ATOM      1  C   UNL     1     -68.880 -51.365 -55.466  0.00  0.00    +0.000 A 
ATOM      2  C   UNL     1     -68.058 -50.300 -55.606  0.00  0.00    +0.000 A 
ATOM      3  N   UNL     1     -66.809 -50.217 -55.015  0.00  0.00    +0.000 N 
ATOM      4  C   UNL     1     -66.433 -51.092 -53.978  0.00  0.00    +0.000 A 
ATOM      5  C   UNL     1     -65.288 -50.848 -53.201  0.00  0.00    +0.000 A 
ATOM      6 BR   UNL     1     -64.228 -49.298 -53.485  0.00  0.00    +0.000 Br
ATOM      7  C   UNL     1     -64.911 -51.730 -52.192  0.00  0.00    +0.000 A 
ATOM      8  C   UNL     1     -65.677 -52.871 -51.951  0.00  0.00    +0.000 A 
ATOM      9  C   UNL     1     -66.805 -53.152 -52.738  0.00  0.00    +0.000 A 
ATOM     10 CL   UNL     1     -67.709 -54.554 -52.303  0.00  0.00    +0.000 Cl
ATOM     11  C   UNL     1     -67.163 -52.274 -53.773  0.00  0.00    +0.000 A 
ATOM     12  C   UNL     1     -68.291 -52.522 -54.712  0.00  0.00    +0.000 A 
ATOM     13  O   UNL     1     -68.713 -53.658 -54.905  0.00  0.00    +0.000 OA
ATOM     14  H   UNL     1     -66.475 -49.257 -54.886  0.00  0.00    +0.000 HD
ENDROOT
BRANCH   1  16
ATOM     15  C   UNL     1     -70.491 -51.922 -57.434  0.00  0.00    +0.000 C 
ATOM     16  C   UNL     1     -70.275 -51.466 -56.004  0.00  0.00    +0.000 C 
ATOM     17  O   UNL     1     -71.247 -51.192 -55.300  0.00  0.00    +0.000 OA
ENDBRANCH   1  16
BRANCH   2  18
ATOM     18  S   UNL     1     -68.589 -48.785 -56.473  0.00  0.00    +0.000 S 
ATOM     19  O   UNL     1     -69.559 -48.159 -55.508  0.00  0.00    +0.000 OA
BRANCH  18  20
ATOM     20  C   UNL     1     -67.022 -47.850 -56.303  0.00  0.00    +0.000 C 
BRANCH  20  21
ATOM     21  C   UNL     1     -66.291 -47.630 -57.587  0.00  0.00    +0.000 A 
ATOM     22  C   UNL     1     -65.080 -46.943 -57.863  0.00  0.00    +0.000 A 
ATOM     23  C   UNL     1     -64.854 -47.153 -59.201  0.00  0.00    +0.000 A 
ATOM     24  C   UNL     1     -63.808 -46.751 -60.159  0.00  0.00    +0.000 C 
ATOM     25  O   UNL     1     -65.853 -47.928 -59.701  0.00  0.00    +0.000 OA
ATOM     26  N   UNL     1     -66.748 -48.234 -58.697  0.00  0.00    +0.000 NA
ENDBRANCH  20  21
ENDBRANCH  18  20
ENDBRANCH   2  18
TORSDOF 4
