REMARK VINA RESULT:    -5.405     12.615     14.818
REMARK INTER + INTRA:          -7.854
REMARK INTER:                  -7.141
REMARK INTRA:                  -0.714
REMARK UNBOUND:                -0.869
REMARK  Name = 
REMARK  6 active torsions:
REMARK  status: ('A' for Active; 'I' for Inactive)
REMARK    1  A    between atoms: C_1  and  C_2
REMARK    2  A    between atoms: C_4  and  C_5
REMARK    3  A    between atoms: C_5  and  S_6
REMARK    4  A    between atoms: S_6  and  C_8
REMARK    5  A    between atoms: C_20  and  C_21
REMARK    6  A    between atoms: C_21  and  C_23
REMARK                            x       y       z     vdW  Elec       q    Type
REMARK                         _______ _______ _______ _____ _____    ______ ____
ROOT
ATOM      1  C   UNL     1     -56.646 -45.327 -77.275  0.00  0.00    +0.000 A 
ATOM      2  N   UNL     1     -57.866 -44.945 -77.865  0.00  0.00    +0.000 N 
ATOM      3  C   UNL     1     -58.269 -43.582 -77.874  0.00  0.00    +0.000 A 
ATOM      4  C   UNL     1     -59.242 -43.075 -78.756  0.00  0.00    +0.000 A 
ATOM      5 BR   UNL     1     -59.968 -44.153 -80.137  0.00  0.00    +0.000 Br
ATOM      6  C   UNL     1     -59.690 -41.750 -78.658  0.00  0.00    +0.000 A 
ATOM      7  C   UNL     1     -59.143 -40.904 -77.686  0.00  0.00    +0.000 A 
ATOM      8  C   UNL     1     -58.176 -41.384 -76.802  0.00  0.00    +0.000 A 
ATOM      9 CL   UNL     1     -57.514 -40.243 -75.688  0.00  0.00    +0.000 Cl
ATOM     10  C   UNL     1     -57.763 -42.722 -76.887  0.00  0.00    +0.000 A 
ATOM     11  C   UNL     1     -56.811 -43.340 -75.944  0.00  0.00    +0.000 A 
ATOM     12  O   UNL     1     -56.726 -42.971 -74.779  0.00  0.00    +0.000 OA
ATOM     13  C   UNL     1     -55.993 -44.500 -76.429  0.00  0.00    +0.000 A 
ATOM     14  H   UNL     1     -58.039 -45.434 -78.754  0.00  0.00    +0.000 HD
ENDROOT
BRANCH   1  15
ATOM     15  S   UNL     1     -55.890 -46.754 -78.098  0.00  0.00    +0.000 S 
ATOM     16  O   UNL     1     -56.754 -46.981 -79.309  0.00  0.00    +0.000 OA
BRANCH  15  17
ATOM     17  C   UNL     1     -56.047 -48.220 -77.036  0.00  0.00    +0.000 C 
BRANCH  17  21
ATOM     18  C   UNL     1     -57.208 -52.737 -79.151  0.00  0.00    +0.000 C 
ATOM     19  C   UNL     1     -57.046 -51.466 -78.420  0.00  0.00    +0.000 A 
ATOM     20  C   UNL     1     -56.092 -50.476 -78.402  0.00  0.00    +0.000 A 
ATOM     21  C   UNL     1     -56.619 -49.491 -77.536  0.00  0.00    +0.000 A 
ATOM     22  N   UNL     1     -57.787 -49.901 -77.012  0.00  0.00    +0.000 NA
ATOM     23  O   UNL     1     -58.050 -51.135 -77.570  0.00  0.00    +0.000 OA
ENDBRANCH  17  21
ENDBRANCH  15  17
ENDBRANCH   1  15
BRANCH  13  24
ATOM     24  C   UNL     1     -54.559 -44.433 -76.025  0.00  0.00    +0.000 C 
ATOM     25  O   UNL     1     -54.085 -45.274 -75.282  0.00  0.00    +0.000 OA
BRANCH  24  26
ATOM     26  C   UNL     1     -53.714 -43.358 -76.579  0.00  0.00    +0.000 C 
ATOM     27  C   UNL     1     -52.527 -42.868 -75.792  0.00  0.00    +0.000 C 
ATOM     28  C   UNL     1     -53.714 -41.973 -75.977  0.00  0.00    +0.000 C 
ENDBRANCH  24  26
ENDBRANCH  13  24
TORSDOF 5
