REMARK VINA RESULT:    -5.967     13.500     17.067
REMARK INTER + INTRA:          -8.346
REMARK INTER:                  -7.927
REMARK INTRA:                  -0.419
REMARK UNBOUND:                -0.635
REMARK  Name = 
REMARK  6 active torsions:
REMARK  status: ('A' for Active; 'I' for Inactive)
REMARK    1  A    between atoms: C_1  and  C_2
REMARK    2  A    between atoms: C_4  and  C_5
REMARK    3  A    between atoms: C_5  and  S_6
REMARK    4  A    between atoms: S_6  and  C_8
REMARK    5  A    between atoms: C_20  and  C_21
REMARK    6  A    between atoms: C_21  and  C_23
REMARK                            x       y       z     vdW  Elec       q    Type
REMARK                         _______ _______ _______ _____ _____    ______ ____
ROOT
ATOM      1  C   UNL     1     -54.871 -42.209 -79.491  0.00  0.00    +0.000 A 
ATOM      2  N   UNL     1     -56.178 -41.821 -79.137  0.00  0.00    +0.000 N 
ATOM      3  C   UNL     1     -57.197 -41.725 -80.124  0.00  0.00    +0.000 A 
ATOM      4  C   UNL     1     -58.569 -41.731 -79.814  0.00  0.00    +0.000 A 
ATOM      5 BR   UNL     1     -59.172 -42.053 -78.045  0.00  0.00    +0.000 Br
ATOM      6  C   UNL     1     -59.538 -41.523 -80.806  0.00  0.00    +0.000 A 
ATOM      7  C   UNL     1     -59.139 -41.334 -82.134  0.00  0.00    +0.000 A 
ATOM      8  C   UNL     1     -57.784 -41.325 -82.466  0.00  0.00    +0.000 A 
ATOM      9 CL   UNL     1     -57.399 -41.156 -84.141  0.00  0.00    +0.000 Cl
ATOM     10  C   UNL     1     -56.823 -41.498 -81.459  0.00  0.00    +0.000 A 
ATOM     11  C   UNL     1     -55.370 -41.420 -81.700  0.00  0.00    +0.000 A 
ATOM     12  O   UNL     1     -54.900 -40.709 -82.579  0.00  0.00    +0.000 OA
ATOM     13  C   UNL     1     -54.462 -42.180 -80.779  0.00  0.00    +0.000 A 
ATOM     14  H   UNL     1     -56.490 -42.260 -78.261  0.00  0.00    +0.000 HD
ENDROOT
BRANCH   1  15
ATOM     15  S   UNL     1     -54.036 -43.128 -78.171  0.00  0.00    +0.000 S 
ATOM     16  O   UNL     1     -55.023 -44.195 -77.783  0.00  0.00    +0.000 OA
BRANCH  15  17
ATOM     17  C   UNL     1     -53.808 -42.046 -76.729  0.00  0.00    +0.000 C 
BRANCH  17  21
ATOM     18  C   UNL     1     -49.535 -39.385 -75.796  0.00  0.00    +0.000 C 
ATOM     19  C   UNL     1     -50.687 -40.295 -75.929  0.00  0.00    +0.000 A 
ATOM     20  C   UNL     1     -51.897 -40.235 -76.579  0.00  0.00    +0.000 A 
ATOM     21  C   UNL     1     -52.481 -41.503 -76.361  0.00  0.00    +0.000 A 
ATOM     22  N   UNL     1     -51.696 -42.253 -75.566  0.00  0.00    +0.000 NA
ATOM     23  O   UNL     1     -50.576 -41.493 -75.301  0.00  0.00    +0.000 OA
ENDBRANCH  17  21
ENDBRANCH  15  17
ENDBRANCH   1  15
BRANCH  13  24
ATOM     24  C   UNL     1     -53.367 -42.907 -81.482  0.00  0.00    +0.000 C 
ATOM     25  O   UNL     1     -53.571 -44.001 -81.980  0.00  0.00    +0.000 OA
BRANCH  24  26
ATOM     26  C   UNL     1     -52.048 -42.259 -81.607  0.00  0.00    +0.000 C 
ATOM     27  C   UNL     1     -51.530 -41.889 -82.973  0.00  0.00    +0.000 C 
ATOM     28  C   UNL     1     -50.869 -42.992 -82.203  0.00  0.00    +0.000 C 
ENDBRANCH  24  26
ENDBRANCH  13  24
TORSDOF 5
