=
 OpenBabel09162515393D

 28 31  0  0  1  0  0  0  0  0999 V2000
  -56.0080  -42.7330  -76.8710 C   0  0  2  0  0  3  0  0  0  0  0  0
  -54.6940  -43.1000  -76.5220 N   0  0  0  0  0  0  0  0  0  0  0  0
  -53.6730  -42.1160  -76.4140 C   0  0  0  0  0  0  0  0  0  0  0  0
  -52.4720  -42.3300  -75.7120 C   0  0  0  0  0  0  0  0  0  0  0  0
  -52.2010  -43.9060  -74.6920 Br  0  0  0  0  0  0  0  0  0  0  0  0
  -51.4450  -41.3750  -75.7230 C   0  0  0  0  0  3  0  0  0  0  0  0
  -51.6240  -40.1750  -76.4200 C   0  0  0  0  0  3  0  0  0  0  0  0
  -52.8060  -39.9400  -77.1220 C   0  0  0  0  0  0  0  0  0  0  0  0
  -52.9570  -38.4000  -77.8890 Cl  0  0  0  0  0  0  0  0  0  0  0  0
  -53.8110  -40.9180  -77.1330 C   0  0  0  0  0  0  0  0  0  0  0  0
  -55.0570  -40.7960  -77.9150 C   0  0  0  0  0  0  0  0  0  0  0  0
  -55.0980  -40.1720  -78.9680 O   0  0  0  0  0  0  0  0  0  0  0  0
  -56.2700  -41.5290  -77.4250 C   0  0  2  0  0  3  0  0  0  0  0  0
  -54.6720  -43.8040  -75.7720 H   0  0  0  0  0  0  0  0  0  0  0  0
  -57.2550  -43.8010  -76.1050 S   0  0  2  0  0  0  0  0  0  0  0  0
  -58.0720  -44.3050  -77.2640 O   0  0  0  0  0  0  0  0  0  0  0  0
  -58.3540  -42.7990  -75.0610 C   0  0  0  0  0  2  0  0  0  0  0  0
  -55.9760  -40.9310  -70.9300 C   0  0  0  0  0  1  0  0  0  0  0  0
  -56.7590  -41.2800  -72.1290 C   0  0  0  0  0  0  0  0  0  0  0  0
  -56.7930  -42.3580  -72.9820 C   0  0  0  0  0  3  0  0  0  0  0  0
  -57.8560  -42.0760  -73.8690 C   0  0  0  0  0  0  0  0  0  0  0  0
  -58.3810  -40.8670  -73.6060 N   0  0  0  0  0  0  0  0  0  0  0  0
  -57.6930  -40.3740  -72.5160 O   0  0  0  0  0  0  0  0  0  0  0  0
  -57.5220  -40.7210  -77.4830 C   0  0  0  0  0  0  0  0  0  0  0  0
  -57.7140  -39.8190  -76.6860 O   0  0  0  0  0  0  0  0  0  0  0  0
  -58.5010  -41.0020  -78.5500 C   0  0  0  0  0  3  0  0  0  0  0  0
  -59.7770  -40.2030  -78.6150 C   0  0  0  0  0  2  0  0  0  0  0  0
  -59.8290  -41.6530  -78.2430 C   0  0  0  0  0  2  0  0  0  0  0  0
  1  2  1  0  0  0  0
  1 15  1  1  0  0  0
  2  3  1  0  0  0  0
  2 14  1  0  0  0  0
  3  4  1  0  0  0  0
  4  5  1  0  0  0  0
  6  4  2  0  0  0  0
  7  6  1  0  0  0  0
  8  7  2  0  0  0  0
  9  8  1  0  0  0  0
 10  8  1  0  0  0  0
 10  3  2  0  0  0  0
 11 13  1  0  0  0  0
 11 10  1  0  0  0  0
 12 11  2  0  0  0  0
 13 24  1  1  0  0  0
 13  1  1  0  0  0  0
 15 16  2  6  0  0  0
 15 17  1  0  0  0  0
 17 21  1  0  0  0  0
 19 18  1  0  0  0  0
 20 19  2  0  0  0  0
 21 22  2  0  0  0  0
 21 20  1  0  0  0  0
 22 23  1  0  0  0  0
 23 19  1  0  0  0  0
 24 25  2  0  0  0  0
 26 28  1  0  0  0  0
 26 24  1  0  0  0  0
 27 26  1  0  0  0  0
 27 28  1  0  0  0  0
M  END
>  <MODEL>
1

>  <REMARK>
 VINA RESULT:    -7.424      0.000      0.000
 INTER + INTRA:         -10.537
 INTER:                  -9.594
 INTRA:                  -0.943
 UNBOUND:                -0.943
  Name = 
  6 active torsions:
  status: ('A' for Active; 'I' for Inactive)
    1  A    between atoms: C_1  and  C_2
    2  A    between atoms: C_4  and  C_5
    3  A    between atoms: C_5  and  S_6
    4  A    between atoms: S_6  and  C_8
    5  A    between atoms: C_20  and  C_21
    6  A    between atoms: C_21  and  C_23
                            x       y       z     vdW  Elec       q    Type
                         _______ _______ _______ _____ _____    ______ ____

>  <TORSDO>
F 5

$$$$
