REMARK  Name = 
REMARK  6 active torsions:
REMARK  status: ('A' for Active; 'I' for Inactive)
REMARK    1  A    between atoms: C_1  and  C_2
REMARK    2  A    between atoms: C_2  and  C_4
REMARK    3  A    between atoms: C_5  and  S_6
REMARK    4  A    between atoms: S_6  and  C_8
REMARK    5  A    between atoms: C_8  and  C_9
REMARK    6  A    between atoms: C_11  and  C_12
REMARK                            x       y       z     vdW  Elec       q    Type
REMARK                         _______ _______ _______ _____ _____    ______ ____
ROOT
ATOM      1  C   UNL     1       3.270   0.912  -0.574  0.00  0.00    +0.000 A 
ATOM      2  C   UNL     1       2.963   2.248  -0.571  0.00  0.00    +0.000 A 
ATOM      3  N   UNL     1       3.689   3.147  -1.308  0.00  0.00    +0.000 N 
ATOM      4  C   UNL     1       4.878   2.835  -1.977  0.00  0.00    +0.000 A 
ATOM      5  C   UNL     1       5.671   3.857  -2.540  0.00  0.00    +0.000 A 
ATOM      6 BR   UNL     1       5.186   5.689  -2.374  0.00  0.00    +0.000 Br
ATOM      7  C   UNL     1       6.839   3.551  -3.229  0.00  0.00    +0.000 A 
ATOM      8  C   UNL     1       7.235   2.221  -3.346  0.00  0.00    +0.000 A 
ATOM      9  C   UNL     1       6.470   1.197  -2.774  0.00  0.00    +0.000 A 
ATOM     10 CL   UNL     1       7.103  -0.401  -2.957  0.00  0.00    +0.000 Cl
ATOM     11  C   UNL     1       5.281   1.510  -2.091  0.00  0.00    +0.000 A 
ATOM     12  C   UNL     1       4.373   0.498  -1.517  0.00  0.00    +0.000 A 
ATOM     13  O   UNL     1       4.499  -0.676  -1.847  0.00  0.00    +0.000 OA
ATOM     14  H   UNL     1       3.428   4.131  -1.234  0.00  0.00    +0.000 HD
ENDROOT
BRANCH   1  16
ATOM     15  C   UNL     1       3.366  -1.511   0.402  0.00  0.00    +0.000 C 
ATOM     16  C   UNL     1       2.636  -0.175   0.254  0.00  0.00    +0.000 C 
ATOM     17  O   UNL     1       1.569   0.002   0.800  0.00  0.00    +0.000 OA
ENDBRANCH   1  16
BRANCH   2  18
ATOM     18  S   UNL     1       1.704   3.026   0.526  0.00  0.00    +0.000 S 
ATOM     19  O   UNL     1       2.508   4.043   1.309  0.00  0.00    +0.000 OA
BRANCH  18  20
ATOM     20  C   UNL     1       0.740   4.026  -0.690  0.00  0.00    +0.000 C 
BRANCH  20  21
ATOM     21  C   UNL     1      -0.381   4.839  -0.126  0.00  0.00    +0.000 A 
ATOM     22  C   UNL     1      -0.528   5.485   1.126  0.00  0.00    +0.000 A 
ATOM     23  C   UNL     1      -1.743   6.128   1.036  0.00  0.00    +0.000 A 
ATOM     24  C   UNL     1      -2.511   6.993   1.942  0.00  0.00    +0.000 C 
ATOM     25  O   UNL     1      -2.295   5.882  -0.179  0.00  0.00    +0.000 OA
ATOM     26  N   UNL     1      -1.442   5.084  -0.914  0.00  0.00    +0.000 NA
ENDBRANCH  20  21
ENDBRANCH  18  20
ENDBRANCH   2  18
TORSDOF 4
