=
 OpenBabel09152517463D

 28 30  0  0  0  0  0  0  0  0999 V2000
  -55.6190  -41.3930  -63.5020 C   0  0  0  0  0  0  0  0  0  0  0  0
  -54.2990  -41.0390  -63.7620 N   0  0  0  0  0  0  0  0  0  0  0  0
  -53.2780  -42.0050  -63.8530 C   0  0  0  0  0  0  0  0  0  0  0  0
  -52.0590  -41.7480  -64.5080 C   0  0  0  0  0  0  0  0  0  0  0  0
  -51.7830  -40.1270  -65.4540 Br  0  0  0  0  0  0  0  0  0  0  0  0
  -51.0330  -42.6970  -64.5160 C   0  0  0  0  0  3  0  0  0  0  0  0
  -51.2130  -43.9190  -63.8740 C   0  0  0  0  0  3  0  0  0  0  0  0
  -52.4260  -44.1990  -63.2200 C   0  0  0  0  0  0  0  0  0  0  0  0
  -52.5580  -45.7730  -62.5220 Cl  0  0  0  0  0  0  0  0  0  0  0  0
  -53.4590  -43.2380  -63.2060 C   0  0  0  0  0  0  0  0  0  0  0  0
  -54.7620  -43.4240  -62.5170 C   0  0  0  0  0  0  0  0  0  0  0  0
  -54.8560  -44.2140  -61.5830 O   0  0  0  0  0  0  0  0  0  0  0  0
  -55.9570  -42.5980  -62.9830 C   0  0  0  0  0  0  0  0  0  0  0  0
  -54.2000  -40.2190  -64.3770 H   0  0  0  0  0  0  0  0  0  0  0  0
  -56.7910  -40.1390  -64.1430 S   0  0  2  0  0  0  0  0  0  0  0  0
  -57.3910  -39.5400  -62.9000 O   0  0  0  0  0  0  0  0  0  0  0  0
  -58.0670  -41.1430  -64.9750 C   0  0  0  0  0  2  0  0  0  0  0  0
  -55.8050  -42.8450  -69.3100 C   0  0  0  0  0  1  0  0  0  0  0  0
  -56.6250  -42.4420  -68.1470 C   0  0  0  0  0  0  0  0  0  0  0  0
  -56.3650  -41.8710  -66.9220 C   0  0  0  0  0  3  0  0  0  0  0  0
  -57.6390  -41.7290  -66.3010 C   0  0  0  0  0  0  0  0  0  0  0  0
  -58.5970  -42.2110  -67.1110 N   0  0  0  0  0  0  0  0  0  0  0  0
  -57.9620  -42.6490  -68.2580 O   0  0  0  0  0  0  0  0  0  0  0  0
  -57.3210  -43.2380  -62.8440 C   0  0  0  0  0  0  0  0  0  0  0  0
  -57.6440  -44.1720  -63.5770 O   0  0  0  0  0  0  0  0  0  0  0  0
  -58.3330  -42.6880  -61.8390 C   0  0  0  0  0  3  0  0  0  0  0  0
  -59.4890  -43.6580  -61.6110 C   0  0  0  0  0  1  0  0  0  0  0  0
  -57.6750  -42.3230  -60.5060 C   0  0  0  0  0  1  0  0  0  0  0  0
  1 13  2  0  0  0  0
  2  1  1  0  0  0  0
  3  2  1  0  0  0  0
  3 10  1  0  0  0  0
  4  3  2  0  0  0  0
  5  4  1  0  0  0  0
  6  4  1  0  0  0  0
  6  7  2  0  0  0  0
  7  8  1  0  0  0  0
  8 10  2  0  0  0  0
  8  9  1  0  0  0  0
 10 11  1  0  0  0  0
 11 12  2  0  0  0  0
 13 24  1  0  0  0  0
 13 11  1  0  0  0  0
 14  2  1  0  0  0  0
 15  1  1  0  0  0  0
 15 16  2  1  0  0  0
 17 15  1  0  0  0  0
 18 19  1  0  0  0  0
 19 20  2  0  0  0  0
 20 21  1  0  0  0  0
 21 17  1  0  0  0  0
 22 21  2  0  0  0  0
 23 19  1  0  0  0  0
 23 22  1  0  0  0  0
 24 26  1  0  0  0  0
 25 24  2  0  0  0  0
 26 27  1  0  0  0  0
 26 28  1  0  0  0  0
M  END
>  <MODEL>
1

>  <REMARK>
 VINA RESULT:    -7.836      0.000      0.000
 INTER + INTRA:         -10.826
 INTER:                 -10.126
 INTRA:                  -0.699
 UNBOUND:                -0.699
  Name = 
  8 active torsions:
  status: ('A' for Active; 'I' for Inactive)
    1  A    between atoms: C_1  and  C_2
    2  A    between atoms: C_4  and  C_5
    3  A    between atoms: C_5  and  S_6
    4  A    between atoms: S_6  and  C_8
    5  A    between atoms: C_20  and  C_21
    6  A    between atoms: C_21  and  C_23
    7  A    between atoms: C_23  and  C_24
    8  A    between atoms: C_23  and  C_25
                            x       y       z     vdW  Elec       q    Type
                         _______ _______ _______ _____ _____    ______ ____

>  <TORSDO>
F 5

$$$$
