REMARK VINA RESULT:    -5.309      3.663      6.646
REMARK INTER + INTRA:          -8.017
REMARK INTER:                  -7.306
REMARK INTRA:                  -0.711
REMARK UNBOUND:                -1.155
REMARK  Name = 
REMARK  6 active torsions:
REMARK  status: ('A' for Active; 'I' for Inactive)
REMARK    1  A    between atoms: C_1  and  C_2
REMARK    2  A    between atoms: C_4  and  C_5
REMARK    3  A    between atoms: C_5  and  S_6
REMARK    4  A    between atoms: S_6  and  C_8
REMARK    5  A    between atoms: C_20  and  C_21
REMARK    6  A    between atoms: C_21  and  C_23
REMARK                            x       y       z     vdW  Elec       q    Type
REMARK                         _______ _______ _______ _____ _____    ______ ____
ROOT
ATOM      1  C   UNL     1     -57.180 -41.945 -61.925  0.00  0.00    +0.000 A 
ATOM      2  N   UNL     1     -55.906 -42.525 -61.769  0.00  0.00    +0.000 N 
ATOM      3  C   UNL     1     -55.504 -43.061 -60.515  0.00  0.00    +0.000 A 
ATOM      4  C   UNL     1     -54.447 -43.980 -60.375  0.00  0.00    +0.000 A 
ATOM      5 BR   UNL     1     -53.584 -44.717 -61.895  0.00  0.00    +0.000 Br
ATOM      6  C   UNL     1     -54.011 -44.398 -59.110  0.00  0.00    +0.000 A 
ATOM      7  C   UNL     1     -54.654 -43.918 -57.963  0.00  0.00    +0.000 A 
ATOM      8  C   UNL     1     -55.706 -43.008 -58.076  0.00  0.00    +0.000 A 
ATOM      9 CL   UNL     1     -56.478 -42.533 -56.607  0.00  0.00    +0.000 Cl
ATOM     10  C   UNL     1     -56.108 -42.570 -59.347  0.00  0.00    +0.000 A 
ATOM     11  C   UNL     1     -57.151 -41.548 -59.561  0.00  0.00    +0.000 A 
ATOM     12  O   UNL     1     -57.353 -40.653 -58.749  0.00  0.00    +0.000 OA
ATOM     13  C   UNL     1     -57.915 -41.582 -60.851  0.00  0.00    +0.000 A 
ATOM     14  H   UNL     1     -55.644 -43.112 -62.573  0.00  0.00    +0.000 HD
ENDROOT
BRANCH   1  15
ATOM     15  S   UNL     1     -57.848 -42.170 -63.595  0.00  0.00    +0.000 S 
ATOM     16  O   UNL     1     -58.575 -43.485 -63.528  0.00  0.00    +0.000 OA
BRANCH  15  17
ATOM     17  C   UNL     1     -56.479 -42.366 -64.774  0.00  0.00    +0.000 C 
BRANCH  17  21
ATOM     18  C   UNL     1     -56.429 -42.100 -69.887  0.00  0.00    +0.000 C 
ATOM     19  C   UNL     1     -56.607 -42.312 -68.438  0.00  0.00    +0.000 A 
ATOM     20  C   UNL     1     -55.928 -41.910 -67.312  0.00  0.00    +0.000 A 
ATOM     21  C   UNL     1     -56.705 -42.395 -66.237  0.00  0.00    +0.000 A 
ATOM     22  N   UNL     1     -57.750 -43.107 -66.695  0.00  0.00    +0.000 NA
ATOM     23  O   UNL     1     -57.684 -43.050 -68.071  0.00  0.00    +0.000 OA
ENDBRANCH  17  21
ENDBRANCH  15  17
ENDBRANCH   1  15
BRANCH  13  24
ATOM     24  C   UNL     1     -59.382 -41.377 -60.684  0.00  0.00    +0.000 C 
ATOM     25  O   UNL     1     -60.074 -42.240 -60.173  0.00  0.00    +0.000 OA
BRANCH  24  26
ATOM     26  C   UNL     1     -59.973 -40.093 -61.105  0.00  0.00    +0.000 C 
ATOM     27  C   UNL     1     -61.472 -39.942 -61.138  0.00  0.00    +0.000 C 
ATOM     28  C   UNL     1     -60.700 -39.959 -62.422  0.00  0.00    +0.000 C 
ENDBRANCH  24  26
ENDBRANCH  13  24
TORSDOF 5
