REMARK VINA RESULT:    -5.644     11.827     14.851
REMARK INTER + INTRA:          -8.195
REMARK INTER:                  -7.112
REMARK INTRA:                  -1.082
REMARK UNBOUND:                -0.901
REMARK  Name = 
REMARK  6 active torsions:
REMARK  status: ('A' for Active; 'I' for Inactive)
REMARK    1  A    between atoms: C_1  and  C_2
REMARK    2  A    between atoms: C_4  and  C_5
REMARK    3  A    between atoms: C_5  and  S_6
REMARK    4  A    between atoms: S_6  and  C_8
REMARK    5  A    between atoms: C_20  and  C_21
REMARK    6  A    between atoms: C_21  and  C_23
REMARK                            x       y       z     vdW  Elec       q    Type
REMARK                         _______ _______ _______ _____ _____    ______ ____
ROOT
ATOM      1  C   UNL     1     -64.427 -46.032 -55.428  0.00  0.00    +0.000 A 
ATOM      2  N   UNL     1     -63.360 -46.227 -56.326  0.00  0.00    +0.000 N 
ATOM      3  C   UNL     1     -63.608 -46.417 -57.714  0.00  0.00    +0.000 A 
ATOM      4  C   UNL     1     -62.625 -46.229 -58.702  0.00  0.00    +0.000 A 
ATOM      5 BR   UNL     1     -60.919 -45.524 -58.265  0.00  0.00    +0.000 Br
ATOM      6  C   UNL     1     -62.880 -46.533 -60.047  0.00  0.00    +0.000 A 
ATOM      7  C   UNL     1     -64.143 -47.007 -60.422  0.00  0.00    +0.000 A 
ATOM      8  C   UNL     1     -65.134 -47.200 -59.459  0.00  0.00    +0.000 A 
ATOM      9 CL   UNL     1     -66.678 -47.719 -60.033  0.00  0.00    +0.000 Cl
ATOM     10  C   UNL     1     -64.854 -46.926 -58.112  0.00  0.00    +0.000 A 
ATOM     11  C   UNL     1     -65.809 -47.179 -57.016  0.00  0.00    +0.000 A 
ATOM     12  O   UNL     1     -66.633 -48.083 -57.075  0.00  0.00    +0.000 OA
ATOM     13  C   UNL     1     -65.695 -46.343 -55.776  0.00  0.00    +0.000 A 
ATOM     14  H   UNL     1     -62.566 -45.603 -56.129  0.00  0.00    +0.000 HD
ENDROOT
BRANCH   1  15
ATOM     15  S   UNL     1     -63.980 -44.958 -54.038  0.00  0.00    +0.000 S 
ATOM     16  O   UNL     1     -62.707 -44.291 -54.483  0.00  0.00    +0.000 OA
BRANCH  15  17
ATOM     17  C   UNL     1     -63.582 -45.977 -52.588  0.00  0.00    +0.000 C 
BRANCH  17  21
ATOM     18  C   UNL     1     -64.950 -50.910 -52.502  0.00  0.00    +0.000 C 
ATOM     19  C   UNL     1     -64.673 -49.470 -52.350  0.00  0.00    +0.000 A 
ATOM     20  C   UNL     1     -63.870 -48.565 -53.003  0.00  0.00    +0.000 A 
ATOM     21  C   UNL     1     -64.164 -47.325 -52.394  0.00  0.00    +0.000 A 
ATOM     22  N   UNL     1     -65.040 -47.490 -51.388  0.00  0.00    +0.000 NA
ATOM     23  O   UNL     1     -65.356 -48.832 -51.366  0.00  0.00    +0.000 OA
ENDBRANCH  17  21
ENDBRANCH  15  17
ENDBRANCH   1  15
BRANCH  13  24
ATOM     24  C   UNL     1     -67.006 -45.863 -55.254  0.00  0.00    +0.000 C 
ATOM     25  O   UNL     1     -67.673 -45.066 -55.891  0.00  0.00    +0.000 OA
BRANCH  24  26
ATOM     26  C   UNL     1     -67.505 -46.407 -53.976  0.00  0.00    +0.000 C 
ATOM     27  C   UNL     1     -68.874 -46.012 -53.487  0.00  0.00    +0.000 C 
ATOM     28  C   UNL     1     -67.658 -45.528 -52.758  0.00  0.00    +0.000 C 
ENDBRANCH  24  26
ENDBRANCH  13  24
TORSDOF 5
