REMARK VINA RESULT:    -4.681     15.380     17.103
REMARK INTER + INTRA:          -6.812
REMARK INTER:                  -6.198
REMARK INTRA:                  -0.614
REMARK UNBOUND:                -1.035
REMARK  Name = 
REMARK  6 active torsions:
REMARK  status: ('A' for Active; 'I' for Inactive)
REMARK    1  A    between atoms: C_1  and  C_2
REMARK    2  A    between atoms: C_2  and  C_4
REMARK    3  A    between atoms: C_5  and  S_6
REMARK    4  A    between atoms: S_6  and  C_8
REMARK    5  A    between atoms: C_8  and  C_9
REMARK    6  A    between atoms: C_11  and  C_12
REMARK                            x       y       z     vdW  Elec       q    Type
REMARK                         _______ _______ _______ _____ _____    ______ ____
ROOT
ATOM      1  C   UNL     1     -58.973 -44.575 -77.836  0.00  0.00    +0.000 A 
ATOM      2  C   UNL     1     -58.136 -45.639 -77.845  0.00  0.00    +0.000 A 
ATOM      3  N   UNL     1     -56.916 -45.586 -77.205  0.00  0.00    +0.000 N 
ATOM      4  C   UNL     1     -56.463 -44.483 -76.474  0.00  0.00    +0.000 A 
ATOM      5  C   UNL     1     -55.203 -44.488 -75.852  0.00  0.00    +0.000 A 
ATOM      6 BR   UNL     1     -54.103 -46.037 -75.886  0.00  0.00    +0.000 Br
ATOM      7  C   UNL     1     -54.720 -43.363 -75.184  0.00  0.00    +0.000 A 
ATOM      8  C   UNL     1     -55.489 -42.203 -75.142  0.00  0.00    +0.000 A 
ATOM      9  C   UNL     1     -56.741 -42.165 -75.756  0.00  0.00    +0.000 A 
ATOM     10 CL   UNL     1     -57.575 -40.651 -75.646  0.00  0.00    +0.000 Cl
ATOM     11  C   UNL     1     -57.221 -43.312 -76.419  0.00  0.00    +0.000 A 
ATOM     12  C   UNL     1     -58.553 -43.363 -77.048  0.00  0.00    +0.000 A 
ATOM     13  O   UNL     1     -59.307 -42.415 -76.871  0.00  0.00    +0.000 OA
ATOM     14  H   UNL     1     -56.446 -46.470 -77.068  0.00  0.00    +0.000 HD
ENDROOT
BRANCH   1  16
ATOM     15  C   UNL     1     -61.485 -45.057 -77.614  0.00  0.00    +0.000 C 
ATOM     16  C   UNL     1     -60.333 -44.519 -78.456  0.00  0.00    +0.000 C 
ATOM     17  O   UNL     1     -60.505 -44.082 -79.563  0.00  0.00    +0.000 OA
ENDBRANCH   1  16
BRANCH   2  18
ATOM     18  S   UNL     1     -58.484 -47.197 -78.765  0.00  0.00    +0.000 S 
ATOM     19  O   UNL     1     -58.122 -46.857 -80.186  0.00  0.00    +0.000 OA
BRANCH  18  20
ATOM     20  C   UNL     1     -57.163 -48.357 -78.172  0.00  0.00    +0.000 C 
BRANCH  20  21
ATOM     21  C   UNL     1     -57.397 -49.758 -78.621  0.00  0.00    +0.000 A 
ATOM     22  C   UNL     1     -56.686 -50.934 -78.282  0.00  0.00    +0.000 A 
ATOM     23  C   UNL     1     -57.285 -51.918 -79.026  0.00  0.00    +0.000 A 
ATOM     24  C   UNL     1     -57.044 -53.358 -79.203  0.00  0.00    +0.000 C 
ATOM     25  O   UNL     1     -58.309 -51.385 -79.742  0.00  0.00    +0.000 OA
ATOM     26  N   UNL     1     -58.401 -50.033 -79.471  0.00  0.00    +0.000 NA
ENDBRANCH  20  21
ENDBRANCH  18  20
ENDBRANCH   2  18
TORSDOF 4
