REMARK VINA RESULT:    -5.584     14.301     15.831
REMARK INTER + INTRA:          -7.693
REMARK INTER:                  -7.073
REMARK INTRA:                  -0.621
REMARK UNBOUND:                -0.804
REMARK  Name = 
REMARK  6 active torsions:
REMARK  status: ('A' for Active; 'I' for Inactive)
REMARK    1  A    between atoms: C_1  and  C_2
REMARK    2  A    between atoms: C_2  and  C_4
REMARK    3  A    between atoms: C_5  and  S_6
REMARK    4  A    between atoms: S_6  and  C_8
REMARK    5  A    between atoms: C_8  and  C_9
REMARK    6  A    between atoms: C_11  and  C_12
REMARK                            x       y       z     vdW  Elec       q    Type
REMARK                         _______ _______ _______ _____ _____    ______ ____
ROOT
ATOM      1  C   UNL     1     -55.728 -42.906 -76.266  0.00  0.00    +0.000 A 
ATOM      2  C   UNL     1     -55.938 -41.707 -76.852  0.00  0.00    +0.000 A 
ATOM      3  N   UNL     1     -54.937 -40.777 -77.044  0.00  0.00    +0.000 N 
ATOM      4  C   UNL     1     -53.621 -40.959 -76.592  0.00  0.00    +0.000 A 
ATOM      5  C   UNL     1     -52.619 -40.017 -76.888  0.00  0.00    +0.000 A 
ATOM      6 BR   UNL     1     -53.025 -38.430 -77.851  0.00  0.00    +0.000 Br
ATOM      7  C   UNL     1     -51.299 -40.226 -76.498  0.00  0.00    +0.000 A 
ATOM      8  C   UNL     1     -50.962 -41.384 -75.803  0.00  0.00    +0.000 A 
ATOM      9  C   UNL     1     -51.935 -42.347 -75.514  0.00  0.00    +0.000 A 
ATOM     10 CL   UNL     1     -51.367 -43.734 -74.651  0.00  0.00    +0.000 Cl
ATOM     11  C   UNL     1     -53.265 -42.150 -75.932  0.00  0.00    +0.000 A 
ATOM     12  C   UNL     1     -54.353 -43.137 -75.697  0.00  0.00    +0.000 A 
ATOM     13  O   UNL     1     -54.147 -44.128 -75.006  0.00  0.00    +0.000 OA
ATOM     14  H   UNL     1     -55.237 -39.812 -77.171  0.00  0.00    +0.000 HD
ENDROOT
BRANCH   1  16
ATOM     15  C   UNL     1     -56.783 -45.105 -77.141  0.00  0.00    +0.000 C 
ATOM     16  C   UNL     1     -56.759 -43.988 -76.123  0.00  0.00    +0.000 C 
ATOM     17  O   UNL     1     -57.602 -43.966 -75.222  0.00  0.00    +0.000 OA
ENDBRANCH   1  16
BRANCH   2  18
ATOM     18  S   UNL     1     -57.618 -41.164 -77.325  0.00  0.00    +0.000 S 
ATOM     19  O   UNL     1     -57.547 -39.665 -77.213  0.00  0.00    +0.000 OA
BRANCH  18  20
ATOM     20  C   UNL     1     -57.551 -41.537 -79.113  0.00  0.00    +0.000 C 
BRANCH  20  21
ATOM     21  C   UNL     1     -58.910 -41.754 -79.690  0.00  0.00    +0.000 A 
ATOM     22  C   UNL     1     -60.158 -41.240 -79.254  0.00  0.00    +0.000 A 
ATOM     23  C   UNL     1     -61.059 -41.674 -80.195  0.00  0.00    +0.000 A 
ATOM     24  C   UNL     1     -62.512 -41.508 -80.389  0.00  0.00    +0.000 C 
ATOM     25  O   UNL     1     -60.402 -42.404 -81.135  0.00  0.00    +0.000 OA
ATOM     26  N   UNL     1     -59.053 -42.451 -80.827  0.00  0.00    +0.000 NA
ENDBRANCH  20  21
ENDBRANCH  18  20
ENDBRANCH   2  18
TORSDOF 4
