REMARK VINA RESULT:    -5.925     12.687     14.805
REMARK INTER + INTRA:          -8.457
REMARK INTER:                  -7.881
REMARK INTRA:                  -0.576
REMARK UNBOUND:                -0.800
REMARK  Name = 
REMARK  8 active torsions:
REMARK  status: ('A' for Active; 'I' for Inactive)
REMARK    1  A    between atoms: C_1  and  C_2
REMARK    2  A    between atoms: C_4  and  C_5
REMARK    3  A    between atoms: C_5  and  S_6
REMARK    4  A    between atoms: S_6  and  C_8
REMARK    5  A    between atoms: C_20  and  C_21
REMARK    6  A    between atoms: C_21  and  C_23
REMARK    7  A    between atoms: C_23  and  C_24
REMARK    8  A    between atoms: C_23  and  C_25
REMARK                            x       y       z     vdW  Elec       q    Type
REMARK                         _______ _______ _______ _____ _____    ______ ____
ROOT
ATOM      1  C   UNL     1     -55.511 -43.783 -78.622  0.00  0.00    +0.000 A 
ATOM      2  N   UNL     1     -55.071 -42.472 -78.469  0.00  0.00    +0.000 N 
ATOM      3  C   UNL     1     -53.944 -42.157 -77.685  0.00  0.00    +0.000 A 
ATOM      4  C   UNL     1     -53.238 -40.949 -77.839  0.00  0.00    +0.000 A 
ATOM      5 BR   UNL     1     -53.669 -39.738 -79.234  0.00  0.00    +0.000 Br
ATOM      6  C   UNL     1     -52.171 -40.627 -76.995  0.00  0.00    +0.000 A 
ATOM      7  C   UNL     1     -51.791 -41.510 -75.988  0.00  0.00    +0.000 A 
ATOM      8  C   UNL     1     -52.479 -42.726 -75.822  0.00  0.00    +0.000 A 
ATOM      9 CL   UNL     1     -51.873 -43.769 -74.588  0.00  0.00    +0.000 Cl
ATOM     10  C   UNL     1     -53.560 -43.047 -76.669  0.00  0.00    +0.000 A 
ATOM     11  C   UNL     1     -54.370 -44.288 -76.555  0.00  0.00    +0.000 A 
ATOM     12  O   UNL     1     -54.430 -44.886 -75.485  0.00  0.00    +0.000 OA
ATOM     13  C   UNL     1     -55.131 -44.777 -77.783  0.00  0.00    +0.000 A 
ATOM     14  H   UNL     1     -55.223 -41.882 -79.299  0.00  0.00    +0.000 HD
ENDROOT
BRANCH   1  15
ATOM     15  S   UNL     1     -56.451 -44.000 -80.179  0.00  0.00    +0.000 S 
ATOM     16  O   UNL     1     -57.700 -44.721 -79.748  0.00  0.00    +0.000 OA
BRANCH  15  17
ATOM     17  C   UNL     1     -55.416 -45.158 -81.137  0.00  0.00    +0.000 C 
BRANCH  17  21
ATOM     18  C   UNL     1     -51.147 -42.473 -82.304  0.00  0.00    +0.000 C 
ATOM     19  C   UNL     1     -52.270 -43.403 -82.054  0.00  0.00    +0.000 A 
ATOM     20  C   UNL     1     -53.468 -43.325 -81.382  0.00  0.00    +0.000 A 
ATOM     21  C   UNL     1     -54.084 -44.596 -81.573  0.00  0.00    +0.000 A 
ATOM     22  N   UNL     1     -53.278 -45.387 -82.303  0.00  0.00    +0.000 NA
ATOM     23  O   UNL     1     -52.154 -44.640 -82.602  0.00  0.00    +0.000 OA
ENDBRANCH  17  21
ENDBRANCH  15  17
ENDBRANCH   1  15
BRANCH  13  24
ATOM     24  C   UNL     1     -55.319 -46.272 -77.915  0.00  0.00    +0.000 C 
ATOM     25  O   UNL     1     -54.719 -46.896 -78.790  0.00  0.00    +0.000 OA
BRANCH  24  26
ATOM     26  C   UNL     1     -56.304 -47.010 -77.009  0.00  0.00    +0.000 C 
ATOM     27  C   UNL     1     -57.483 -47.576 -77.796  0.00  0.00    +0.000 C 
ATOM     28  C   UNL     1     -55.621 -48.119 -76.204  0.00  0.00    +0.000 C 
ENDBRANCH  24  26
ENDBRANCH  13  24
TORSDOF 5
