REMARK  Name = 
REMARK  8 active torsions:
REMARK  status: ('A' for Active; 'I' for Inactive)
REMARK    1  A    between atoms: C_1  and  C_2
REMARK    2  A    between atoms: C_4  and  C_5
REMARK    3  A    between atoms: C_5  and  S_6
REMARK    4  A    between atoms: S_6  and  C_8
REMARK    5  A    between atoms: C_20  and  C_21
REMARK    6  A    between atoms: C_21  and  C_23
REMARK    7  A    between atoms: C_23  and  C_24
REMARK    8  A    between atoms: C_23  and  C_25
REMARK                            x       y       z     vdW  Elec       q    Type
REMARK                         _______ _______ _______ _____ _____    ______ ____
ROOT
ATOM      1  C   UNL     1      -3.725  -4.130   0.477  0.00  0.00    +0.000 A 
ATOM      2  N   UNL     1      -3.636  -5.498   0.722  0.00  0.00    +0.000 N 
ATOM      3  C   UNL     1      -4.703  -6.374   0.430  0.00  0.00    +0.000 A 
ATOM      4  C   UNL     1      -4.515  -7.764   0.299  0.00  0.00    +0.000 A 
ATOM      5 CL   UNL     1      -2.928  -8.447   0.330  0.00  0.00    +0.000 Cl
ATOM      6  C   UNL     1      -5.599  -8.622   0.114  0.00  0.00    +0.000 A 
ATOM      7  C   UNL     1      -6.892  -8.097   0.054  0.00  0.00    +0.000 A 
ATOM      8  C   UNL     1      -7.098  -6.716   0.167  0.00  0.00    +0.000 A 
ATOM      9 CL   UNL     1      -8.731  -6.181   0.010  0.00  0.00    +0.000 Cl
ATOM     10  C   UNL     1      -6.005  -5.859   0.367  0.00  0.00    +0.000 A 
ATOM     11  C   UNL     1      -6.111  -4.393   0.580  0.00  0.00    +0.000 A 
ATOM     12  O   UNL     1      -7.132  -3.933   1.077  0.00  0.00    +0.000 OA
ATOM     13  C   UNL     1      -4.916  -3.504   0.259  0.00  0.00    +0.000 A 
ATOM     14  H   UNL     1      -2.695  -5.883   0.567  0.00  0.00    +0.000 HD
ENDROOT
BRANCH   1  15
ATOM     15  S   UNL     1      -2.059  -3.387   0.248  0.00  0.00    +0.000 S 
ATOM     16  O   UNL     1      -1.127  -4.563   0.357  0.00  0.00    +0.000 OA
BRANCH  15  17
ATOM     17  C   UNL     1      -1.851  -2.376   1.770  0.00  0.00    +0.000 C 
BRANCH  17  21
ATOM     18  C   UNL     1       3.113  -0.929   1.770  0.00  0.00    +0.000 C 
ATOM     19  C   UNL     1       1.660  -1.175   1.888  0.00  0.00    +0.000 A 
ATOM     20  C   UNL     1       0.764  -2.031   1.291  0.00  0.00    +0.000 A 
ATOM     21  C   UNL     1      -0.483  -1.759   1.921  0.00  0.00    +0.000 A 
ATOM     22  N   UNL     1      -0.336  -0.770   2.819  0.00  0.00    +0.000 NA
ATOM     23  O   UNL     1       0.999  -0.415   2.799  0.00  0.00    +0.000 OA
ENDBRANCH  17  21
ENDBRANCH  15  17
ENDBRANCH   1  15
BRANCH  13  24
ATOM     24  C   UNL     1      -5.272  -2.123  -0.252  0.00  0.00    +0.000 C 
ATOM     25  O   UNL     1      -6.445  -1.860  -0.548  0.00  0.00    +0.000 OA
BRANCH  24  26
ATOM     26  C   UNL     1      -4.217  -1.078  -0.563  0.00  0.00    +0.000 C 
ATOM     27  C   UNL     1      -3.925  -1.072  -2.052  0.00  0.00    +0.000 C 
ATOM     28  C   UNL     1      -4.600   0.290  -0.011  0.00  0.00    +0.000 C 
ENDBRANCH  24  26
ENDBRANCH  13  24
TORSDOF 5
