REMARK VINA RESULT:    -5.505     15.030     16.415
REMARK INTER + INTRA:          -7.512
REMARK INTER:                  -6.682
REMARK INTRA:                  -0.830
REMARK UNBOUND:                -0.720
REMARK  Name = 
REMARK  6 active torsions:
REMARK  status: ('A' for Active; 'I' for Inactive)
REMARK    1  A    between atoms: C_1  and  C_2
REMARK    2  A    between atoms: C_2  and  C_4
REMARK    3  A    between atoms: C_5  and  S_6
REMARK    4  A    between atoms: S_6  and  C_8
REMARK    5  A    between atoms: C_8  and  C_9
REMARK    6  A    between atoms: C_11  and  C_12
REMARK                            x       y       z     vdW  Elec       q    Type
REMARK                         _______ _______ _______ _____ _____    ______ ____
ROOT
ATOM      1  C   UNL     1     -58.463 -39.306 -62.354  0.00  0.00    +0.000 A 
ATOM      2  C   UNL     1     -58.356 -37.975 -62.120  0.00  0.00    +0.000 A 
ATOM      3  N   UNL     1     -57.272 -37.220 -62.532  0.00  0.00    +0.000 N 
ATOM      4  C   UNL     1     -56.112 -37.790 -63.089  0.00  0.00    +0.000 A 
ATOM      5  C   UNL     1     -55.005 -36.997 -63.431  0.00  0.00    +0.000 A 
ATOM      6 BR   UNL     1     -54.986 -35.134 -63.055  0.00  0.00    +0.000 Br
ATOM      7  C   UNL     1     -53.881 -37.550 -64.046  0.00  0.00    +0.000 A 
ATOM      8  C   UNL     1     -53.856 -38.913 -64.334  0.00  0.00    +0.000 A 
ATOM      9  C   UNL     1     -54.947 -39.723 -64.013  0.00  0.00    +0.000 A 
ATOM     10 CL   UNL     1     -54.757 -41.394 -64.421  0.00  0.00    +0.000 Cl
ATOM     11  C   UNL     1     -56.086 -39.159 -63.400  0.00  0.00    +0.000 A 
ATOM     12  C   UNL     1     -57.282 -39.956 -63.031  0.00  0.00    +0.000 A 
ATOM     13  O   UNL     1     -57.293 -41.167 -63.243  0.00  0.00    +0.000 OA
ATOM     14  H   UNL     1     -57.149 -36.319 -62.071  0.00  0.00    +0.000 HD
ENDROOT
BRANCH   1  16
ATOM     15  C   UNL     1     -59.618 -40.888 -60.638  0.00  0.00    +0.000 C 
ATOM     16  C   UNL     1     -59.637 -40.165 -61.966  0.00  0.00    +0.000 C 
ATOM     17  O   UNL     1     -60.612 -40.307 -62.712  0.00  0.00    +0.000 OA
ENDBRANCH   1  16
BRANCH   2  18
ATOM     18  S   UNL     1     -59.586 -37.097 -61.093  0.00  0.00    +0.000 S 
ATOM     19  O   UNL     1     -58.759 -36.129 -60.291  0.00  0.00    +0.000 OA
BRANCH  18  20
ATOM     20  C   UNL     1     -60.422 -36.100 -62.377  0.00  0.00    +0.000 C 
BRANCH  20  21
ATOM     21  C   UNL     1     -60.068 -34.647 -62.307  0.00  0.00    +0.000 A 
ATOM     22  C   UNL     1     -59.001 -33.929 -62.911  0.00  0.00    +0.000 A 
ATOM     23  C   UNL     1     -59.184 -32.628 -62.514  0.00  0.00    +0.000 A 
ATOM     24  C   UNL     1     -58.446 -31.366 -62.718  0.00  0.00    +0.000 C 
ATOM     25  O   UNL     1     -60.311 -32.552 -61.758  0.00  0.00    +0.000 OA
ATOM     26  N   UNL     1     -60.872 -33.809 -61.633  0.00  0.00    +0.000 NA
ENDBRANCH  20  21
ENDBRANCH  18  20
ENDBRANCH   2  18
TORSDOF 4
