REMARK VINA RESULT:    -5.756      3.580      5.883
REMARK INTER + INTRA:          -8.436
REMARK INTER:                  -7.351
REMARK INTRA:                  -1.086
REMARK UNBOUND:                -0.997
REMARK  Name = 
REMARK  8 active torsions:
REMARK  status: ('A' for Active; 'I' for Inactive)
REMARK    1  A    between atoms: C_1  and  C_2
REMARK    2  A    between atoms: C_4  and  C_5
REMARK    3  A    between atoms: C_5  and  S_6
REMARK    4  A    between atoms: S_6  and  C_8
REMARK    5  A    between atoms: C_20  and  C_21
REMARK    6  A    between atoms: C_21  and  C_23
REMARK    7  A    between atoms: C_23  and  C_24
REMARK    8  A    between atoms: C_23  and  C_25
REMARK                            x       y       z     vdW  Elec       q    Type
REMARK                         _______ _______ _______ _____ _____    ______ ____
ROOT
ATOM      1  C   UNL     1     -56.757 -43.417 -77.941  0.00  0.00    +0.000 A 
ATOM      2  N   UNL     1     -55.890 -43.718 -76.894  0.00  0.00    +0.000 N 
ATOM      3  C   UNL     1     -55.501 -45.044 -76.612  0.00  0.00    +0.000 A 
ATOM      4  C   UNL     1     -54.360 -45.341 -75.841  0.00  0.00    +0.000 A 
ATOM      5 CL   UNL     1     -53.284 -44.086 -75.337  0.00  0.00    +0.000 Cl
ATOM      6  C   UNL     1     -54.053 -46.655 -75.487  0.00  0.00    +0.000 A 
ATOM      7  C   UNL     1     -54.887 -47.695 -75.905  0.00  0.00    +0.000 A 
ATOM      8  C   UNL     1     -56.018 -47.421 -76.685  0.00  0.00    +0.000 A 
ATOM      9 CL   UNL     1     -56.931 -48.793 -77.196  0.00  0.00    +0.000 Cl
ATOM     10  C   UNL     1     -56.329 -46.096 -77.026  0.00  0.00    +0.000 A 
ATOM     11  C   UNL     1     -57.541 -45.682 -77.778  0.00  0.00    +0.000 A 
ATOM     12  O   UNL     1     -58.552 -46.372 -77.711  0.00  0.00    +0.000 OA
ATOM     13  C   UNL     1     -57.531 -44.364 -78.542  0.00  0.00    +0.000 A 
ATOM     14  H   UNL     1     -55.165 -43.004 -76.743  0.00  0.00    +0.000 HD
ENDROOT
BRANCH   1  15
ATOM     15  S   UNL     1     -56.517 -41.691 -78.527  0.00  0.00    +0.000 S 
ATOM     16  O   UNL     1     -57.498 -41.560 -79.660  0.00  0.00    +0.000 OA
BRANCH  15  17
ATOM     17  C   UNL     1     -54.831 -41.741 -79.260  0.00  0.00    +0.000 C 
BRANCH  17  21
ATOM     18  C   UNL     1     -50.496 -41.063 -76.524  0.00  0.00    +0.000 C 
ATOM     19  C   UNL     1     -51.833 -41.164 -77.148  0.00  0.00    +0.000 A 
ATOM     20  C   UNL     1     -52.305 -41.516 -78.391  0.00  0.00    +0.000 A 
ATOM     21  C   UNL     1     -53.722 -41.437 -78.284  0.00  0.00    +0.000 A 
ATOM     22  N   UNL     1     -54.066 -41.026 -77.052  0.00  0.00    +0.000 NA
ATOM     23  O   UNL     1     -52.888 -40.864 -76.348  0.00  0.00    +0.000 OA
ENDBRANCH  17  21
ENDBRANCH  15  17
ENDBRANCH   1  15
BRANCH  13  24
ATOM     24  C   UNL     1     -58.354 -44.363 -79.815  0.00  0.00    +0.000 C 
ATOM     25  O   UNL     1     -59.542 -44.018 -79.779  0.00  0.00    +0.000 OA
BRANCH  24  26
ATOM     26  C   UNL     1     -57.821 -44.915 -81.123  0.00  0.00    +0.000 C 
ATOM     27  C   UNL     1     -56.309 -44.786 -81.157  0.00  0.00    +0.000 C 
ATOM     28  C   UNL     1     -58.318 -46.333 -81.380  0.00  0.00    +0.000 C 
ENDBRANCH  24  26
ENDBRANCH  13  24
TORSDOF 5
