REMARK VINA RESULT:    -7.000      3.862      6.377
REMARK INTER + INTRA:          -9.953
REMARK INTER:                  -9.217
REMARK INTRA:                  -0.736
REMARK UNBOUND:                -0.908
REMARK  Name = 
REMARK  6 active torsions:
REMARK  status: ('A' for Active; 'I' for Inactive)
REMARK    1  A    between atoms: C_1  and  C_2
REMARK    2  A    between atoms: C_4  and  C_5
REMARK    3  A    between atoms: C_5  and  S_6
REMARK    4  A    between atoms: S_6  and  C_8
REMARK    5  A    between atoms: C_20  and  C_21
REMARK    6  A    between atoms: C_21  and  C_23
REMARK                            x       y       z     vdW  Elec       q    Type
REMARK                         _______ _______ _______ _____ _____    ______ ____
ROOT
ATOM      1  C   UNL     1     -55.317 -40.272 -78.181  0.00  0.00    +0.000 A 
ATOM      2  N   UNL     1     -56.345 -40.184 -77.222  0.00  0.00    +0.000 N 
ATOM      3  C   UNL     1     -57.287 -41.238 -77.073  0.00  0.00    +0.000 A 
ATOM      4  C   UNL     1     -58.075 -41.407 -75.919  0.00  0.00    +0.000 A 
ATOM      5 BR   UNL     1     -57.804 -40.328 -74.383  0.00  0.00    +0.000 Br
ATOM      6  C   UNL     1     -59.070 -42.393 -75.858  0.00  0.00    +0.000 A 
ATOM      7  C   UNL     1     -59.268 -43.245 -76.950  0.00  0.00    +0.000 A 
ATOM      8  C   UNL     1     -58.498 -43.099 -78.104  0.00  0.00    +0.000 A 
ATOM      9 CL   UNL     1     -58.771 -44.244 -79.367  0.00  0.00    +0.000 Cl
ATOM     10  C   UNL     1     -57.531 -42.085 -78.167  0.00  0.00    +0.000 A 
ATOM     11  C   UNL     1     -56.730 -41.799 -79.373  0.00  0.00    +0.000 A 
ATOM     12  O   UNL     1     -57.165 -42.002 -80.499  0.00  0.00    +0.000 OA
ATOM     13  C   UNL     1     -55.381 -41.170 -79.189  0.00  0.00    +0.000 A 
ATOM     14  H   UNL     1     -56.012 -39.797 -76.328  0.00  0.00    +0.000 HD
ENDROOT
BRANCH   1  15
ATOM     15  S   UNL     1     -53.803 -39.425 -77.657  0.00  0.00    +0.000 S 
ATOM     16  O   UNL     1     -53.339 -38.700 -78.892  0.00  0.00    +0.000 OA
BRANCH  15  17
ATOM     17  C   UNL     1     -52.533 -40.655 -77.240  0.00  0.00    +0.000 C 
BRANCH  17  21
ATOM     18  C   UNL     1     -48.706 -38.588 -74.538  0.00  0.00    +0.000 C 
ATOM     19  C   UNL     1     -49.741 -39.370 -75.238  0.00  0.00    +0.000 A 
ATOM     20  C   UNL     1     -50.830 -39.055 -76.017  0.00  0.00    +0.000 A 
ATOM     21  C   UNL     1     -51.333 -40.304 -76.445  0.00  0.00    +0.000 A 
ATOM     22  N   UNL     1     -50.630 -41.309 -75.896  0.00  0.00    +0.000 NA
ATOM     23  O   UNL     1     -49.635 -40.720 -75.144  0.00  0.00    +0.000 OA
ENDBRANCH  17  21
ENDBRANCH  15  17
ENDBRANCH   1  15
BRANCH  13  24
ATOM     24  C   UNL     1     -54.316 -41.776 -80.037  0.00  0.00    +0.000 C 
ATOM     25  O   UNL     1     -53.939 -42.918 -79.838  0.00  0.00    +0.000 OA
BRANCH  24  26
ATOM     26  C   UNL     1     -53.760 -40.987 -81.153  0.00  0.00    +0.000 C 
ATOM     27  C   UNL     1     -54.645 -40.008 -81.881  0.00  0.00    +0.000 C 
ATOM     28  C   UNL     1     -54.178 -41.247 -82.581  0.00  0.00    +0.000 C 
ENDBRANCH  24  26
ENDBRANCH  13  24
TORSDOF 5
