REMARK VINA RESULT:    -5.744      3.696      6.865
REMARK INTER + INTRA:          -7.938
REMARK INTER:                  -7.140
REMARK INTRA:                  -0.798
REMARK UNBOUND:                -0.850
REMARK  Name = 
REMARK  6 active torsions:
REMARK  status: ('A' for Active; 'I' for Inactive)
REMARK    1  A    between atoms: C_1  and  C_2
REMARK    2  A    between atoms: C_2  and  C_4
REMARK    3  A    between atoms: C_5  and  S_6
REMARK    4  A    between atoms: S_6  and  C_8
REMARK    5  A    between atoms: C_8  and  C_9
REMARK    6  A    between atoms: C_11  and  C_12
REMARK                            x       y       z     vdW  Elec       q    Type
REMARK                         _______ _______ _______ _____ _____    ______ ____
ROOT
ATOM      1  C   UNL     1     -56.296 -42.256 -63.033  0.00  0.00    +0.000 A 
ATOM      2  C   UNL     1     -57.064 -41.544 -62.179  0.00  0.00    +0.000 A 
ATOM      3  N   UNL     1     -56.962 -41.644 -60.808  0.00  0.00    +0.000 N 
ATOM      4  C   UNL     1     -56.086 -42.532 -60.164  0.00  0.00    +0.000 A 
ATOM      5  C   UNL     1     -55.946 -42.525 -58.766  0.00  0.00    +0.000 A 
ATOM      6 BR   UNL     1     -56.988 -41.354 -57.687  0.00  0.00    +0.000 Br
ATOM      7  C   UNL     1     -55.037 -43.364 -58.128  0.00  0.00    +0.000 A 
ATOM      8  C   UNL     1     -54.246 -44.222 -58.887  0.00  0.00    +0.000 A 
ATOM      9  C   UNL     1     -54.346 -44.230 -60.284  0.00  0.00    +0.000 A 
ATOM     10 CL   UNL     1     -53.291 -45.339 -61.091  0.00  0.00    +0.000 Cl
ATOM     11  C   UNL     1     -55.249 -43.364 -60.930  0.00  0.00    +0.000 A 
ATOM     12  C   UNL     1     -55.399 -43.293 -62.407  0.00  0.00    +0.000 A 
ATOM     13  O   UNL     1     -54.830 -44.105 -63.130  0.00  0.00    +0.000 OA
ATOM     14  H   UNL     1     -57.768 -41.332 -60.267  0.00  0.00    +0.000 HD
ENDROOT
BRANCH   1  16
ATOM     15  C   UNL     1     -57.242 -42.976 -65.334  0.00  0.00    +0.000 C 
ATOM     16  C   UNL     1     -56.300 -42.107 -64.529  0.00  0.00    +0.000 C 
ATOM     17  O   UNL     1     -55.537 -41.336 -65.109  0.00  0.00    +0.000 OA
ENDBRANCH   1  16
BRANCH   2  18
ATOM     18  S   UNL     1     -58.417 -40.487 -62.792  0.00  0.00    +0.000 S 
ATOM     19  O   UNL     1     -59.655 -41.146 -62.244  0.00  0.00    +0.000 OA
BRANCH  18  20
ATOM     20  C   UNL     1     -58.132 -39.017 -61.755  0.00  0.00    +0.000 C 
BRANCH  20  21
ATOM     21  C   UNL     1     -57.237 -38.023 -62.419  0.00  0.00    +0.000 A 
ATOM     22  C   UNL     1     -56.125 -38.251 -63.271  0.00  0.00    +0.000 A 
ATOM     23  C   UNL     1     -55.732 -36.998 -63.672  0.00  0.00    +0.000 A 
ATOM     24  C   UNL     1     -54.678 -36.481 -64.564  0.00  0.00    +0.000 C 
ATOM     25  O   UNL     1     -56.544 -36.073 -63.094  0.00  0.00    +0.000 OA
ATOM     26  N   UNL     1     -57.492 -36.711 -62.313  0.00  0.00    +0.000 NA
ENDBRANCH  20  21
ENDBRANCH  18  20
ENDBRANCH   2  18
TORSDOF 4
