REMARK VINA RESULT:    -5.542      9.831     12.764
REMARK INTER + INTRA:          -7.846
REMARK INTER:                  -6.922
REMARK INTRA:                  -0.923
REMARK UNBOUND:                -0.684
REMARK  Name = 
REMARK  8 active torsions:
REMARK  status: ('A' for Active; 'I' for Inactive)
REMARK    1  A    between atoms: C_1  and  C_2
REMARK    2  A    between atoms: C_4  and  C_5
REMARK    3  A    between atoms: C_5  and  S_6
REMARK    4  A    between atoms: S_6  and  C_8
REMARK    5  A    between atoms: C_20  and  C_21
REMARK    6  A    between atoms: C_21  and  C_23
REMARK    7  A    between atoms: C_23  and  C_24
REMARK    8  A    between atoms: C_23  and  C_25
REMARK                            x       y       z     vdW  Elec       q    Type
REMARK                         _______ _______ _______ _____ _____    ______ ____
ROOT
ATOM      1  C   UNL     1     -65.394 -41.579 -70.560  0.00  0.00    +0.000 A 
ATOM      2  N   UNL     1     -64.330 -42.284 -71.113  0.00  0.00    +0.000 N 
ATOM      3  C   UNL     1     -64.426 -42.893 -72.380  0.00  0.00    +0.000 A 
ATOM      4  C   UNL     1     -63.288 -43.238 -73.134  0.00  0.00    +0.000 A 
ATOM      5 BR   UNL     1     -61.549 -42.752 -72.554  0.00  0.00    +0.000 Br
ATOM      6  C   UNL     1     -63.411 -43.913 -74.352  0.00  0.00    +0.000 A 
ATOM      7  C   UNL     1     -64.672 -44.247 -74.837  0.00  0.00    +0.000 A 
ATOM      8  C   UNL     1     -65.822 -43.904 -74.103  0.00  0.00    +0.000 A 
ATOM      9 CL   UNL     1     -67.331 -44.307 -74.839  0.00  0.00    +0.000 Cl
ATOM     10  C   UNL     1     -65.698 -43.231 -72.870  0.00  0.00    +0.000 A 
ATOM     11  C   UNL     1     -66.846 -42.855 -72.006  0.00  0.00    +0.000 A 
ATOM     12  O   UNL     1     -67.906 -43.468 -72.090  0.00  0.00    +0.000 OA
ATOM     13  C   UNL     1     -66.665 -41.715 -71.008  0.00  0.00    +0.000 A 
ATOM     14  H   UNL     1     -63.404 -41.910 -70.862  0.00  0.00    +0.000 HD
ENDROOT
BRANCH   1  15
ATOM     15  S   UNL     1     -64.815 -40.332 -69.348  0.00  0.00    +0.000 S 
ATOM     16  O   UNL     1     -63.563 -39.778 -69.972  0.00  0.00    +0.000 OA
BRANCH  15  17
ATOM     17  C   UNL     1     -64.343 -41.340 -67.902  0.00  0.00    +0.000 C 
BRANCH  17  21
ATOM     18  C   UNL     1     -59.302 -42.518 -67.950  0.00  0.00    +0.000 C 
ATOM     19  C   UNL     1     -60.697 -42.055 -67.779  0.00  0.00    +0.000 A 
ATOM     20  C   UNL     1     -61.874 -42.231 -68.470  0.00  0.00    +0.000 A 
ATOM     21  C   UNL     1     -62.854 -41.519 -67.720  0.00  0.00    +0.000 A 
ATOM     22  N   UNL     1     -62.278 -40.937 -66.654  0.00  0.00    +0.000 NA
ATOM     23  O   UNL     1     -60.939 -41.276 -66.693  0.00  0.00    +0.000 OA
ENDBRANCH  17  21
ENDBRANCH  15  17
ENDBRANCH   1  15
BRANCH  13  24
ATOM     24  C   UNL     1     -67.890 -40.886 -70.692  0.00  0.00    +0.000 C 
ATOM     25  O   UNL     1     -68.653 -41.229 -69.790  0.00  0.00    +0.000 OA
BRANCH  24  26
ATOM     26  C   UNL     1     -68.227 -39.654 -71.533  0.00  0.00    +0.000 C 
ATOM     27  C   UNL     1     -68.890 -40.034 -72.854  0.00  0.00    +0.000 C 
ATOM     28  C   UNL     1     -69.104 -38.661 -70.765  0.00  0.00    +0.000 C 
ENDBRANCH  24  26
ENDBRANCH  13  24
TORSDOF 5
