REMARK VINA RESULT:    -6.117     10.807     13.586
REMARK INTER + INTRA:          -8.698
REMARK INTER:                  -7.423
REMARK INTRA:                  -1.275
REMARK UNBOUND:                -0.794
REMARK  Name = 
REMARK  8 active torsions:
REMARK  status: ('A' for Active; 'I' for Inactive)
REMARK    1  A    between atoms: C_1  and  C_2
REMARK    2  A    between atoms: C_4  and  C_5
REMARK    3  A    between atoms: C_5  and  S_6
REMARK    4  A    between atoms: S_6  and  C_8
REMARK    5  A    between atoms: C_20  and  C_21
REMARK    6  A    between atoms: C_21  and  C_23
REMARK    7  A    between atoms: C_23  and  C_24
REMARK    8  A    between atoms: C_23  and  C_25
REMARK                            x       y       z     vdW  Elec       q    Type
REMARK                         _______ _______ _______ _____ _____    ______ ____
ROOT
ATOM      1  C   UNL     1     -57.843 -40.080 -63.099  0.00  0.00    +0.000 A 
ATOM      2  N   UNL     1     -57.627 -38.862 -62.461  0.00  0.00    +0.000 N 
ATOM      3  C   UNL     1     -56.631 -37.966 -62.897  0.00  0.00    +0.000 A 
ATOM      4  C   UNL     1     -56.658 -36.598 -62.566  0.00  0.00    +0.000 A 
ATOM      5 BR   UNL     1     -58.133 -35.846 -61.642  0.00  0.00    +0.000 Br
ATOM      6  C   UNL     1     -55.616 -35.746 -62.947  0.00  0.00    +0.000 A 
ATOM      7  C   UNL     1     -54.537 -36.248 -63.667  0.00  0.00    +0.000 A 
ATOM      8  C   UNL     1     -54.495 -37.611 -64.015  0.00  0.00    +0.000 A 
ATOM      9 CL   UNL     1     -53.142 -38.101 -64.969  0.00  0.00    +0.000 Cl
ATOM     10  C   UNL     1     -55.542 -38.472 -63.625  0.00  0.00    +0.000 A 
ATOM     11  C   UNL     1     -55.575 -39.928 -63.913  0.00  0.00    +0.000 A 
ATOM     12  O   UNL     1     -54.531 -40.539 -64.118  0.00  0.00    +0.000 OA
ATOM     13  C   UNL     1     -56.926 -40.638 -63.925  0.00  0.00    +0.000 A 
ATOM     14  H   UNL     1     -58.480 -38.436 -62.075  0.00  0.00    +0.000 HD
ENDROOT
BRANCH   1  15
ATOM     15  S   UNL     1     -59.558 -40.675 -62.847  0.00  0.00    +0.000 S 
ATOM     16  O   UNL     1     -60.168 -39.640 -61.941  0.00  0.00    +0.000 OA
BRANCH  15  17
ATOM     17  C   UNL     1     -59.331 -42.215 -61.895  0.00  0.00    +0.000 C 
BRANCH  17  21
ATOM     18  C   UNL     1     -55.193 -42.487 -58.796  0.00  0.00    +0.000 C 
ATOM     19  C   UNL     1     -56.460 -42.290 -59.534  0.00  0.00    +0.000 A 
ATOM     20  C   UNL     1     -56.915 -42.615 -60.792  0.00  0.00    +0.000 A 
ATOM     21  C   UNL     1     -58.260 -42.145 -60.833  0.00  0.00    +0.000 A 
ATOM     22  N   UNL     1     -58.571 -41.556 -59.665  0.00  0.00    +0.000 NA
ATOM     23  O   UNL     1     -57.451 -41.652 -58.861  0.00  0.00    +0.000 OA
ENDBRANCH  17  21
ENDBRANCH  15  17
ENDBRANCH   1  15
BRANCH  13  24
ATOM     24  C   UNL     1     -57.067 -41.816 -64.863  0.00  0.00    +0.000 C 
ATOM     25  O   UNL     1     -56.794 -42.952 -64.476  0.00  0.00    +0.000 OA
BRANCH  24  26
ATOM     26  C   UNL     1     -57.485 -41.599 -66.318  0.00  0.00    +0.000 C 
ATOM     27  C   UNL     1     -56.439 -42.131 -67.293  0.00  0.00    +0.000 C 
ATOM     28  C   UNL     1     -58.854 -42.217 -66.618  0.00  0.00    +0.000 C 
ENDBRANCH  24  26
ENDBRANCH  13  24
TORSDOF 5
