REMARK VINA RESULT:    -4.813     12.201     13.940
REMARK INTER + INTRA:          -6.788
REMARK INTER:                  -6.201
REMARK INTRA:                  -0.587
REMARK UNBOUND:                -0.850
REMARK  Name = 
REMARK  6 active torsions:
REMARK  status: ('A' for Active; 'I' for Inactive)
REMARK    1  A    between atoms: C_1  and  C_2
REMARK    2  A    between atoms: C_2  and  C_4
REMARK    3  A    between atoms: C_5  and  S_6
REMARK    4  A    between atoms: S_6  and  C_8
REMARK    5  A    between atoms: C_8  and  C_9
REMARK    6  A    between atoms: C_11  and  C_12
REMARK                            x       y       z     vdW  Elec       q    Type
REMARK                         _______ _______ _______ _____ _____    ______ ____
ROOT
ATOM      1  C   UNL     1     -63.969 -41.112 -70.120  0.00  0.00    +0.000 A 
ATOM      2  C   UNL     1     -65.278 -41.353 -70.356  0.00  0.00    +0.000 A 
ATOM      3  N   UNL     1     -65.728 -42.093 -71.429  0.00  0.00    +0.000 N 
ATOM      4  C   UNL     1     -64.875 -42.626 -72.409  0.00  0.00    +0.000 A 
ATOM      5  C   UNL     1     -65.372 -43.457 -73.427  0.00  0.00    +0.000 A 
ATOM      6 BR   UNL     1     -67.232 -43.842 -73.552  0.00  0.00    +0.000 Br
ATOM      7  C   UNL     1     -64.523 -44.033 -74.366  0.00  0.00    +0.000 A 
ATOM      8  C   UNL     1     -63.154 -43.788 -74.295  0.00  0.00    +0.000 A 
ATOM      9  C   UNL     1     -62.629 -42.985 -73.276  0.00  0.00    +0.000 A 
ATOM     10 CL   UNL     1     -60.911 -42.781 -73.309  0.00  0.00    +0.000 Cl
ATOM     11  C   UNL     1     -63.488 -42.422 -72.311  0.00  0.00    +0.000 A 
ATOM     12  C   UNL     1     -63.009 -41.579 -71.184  0.00  0.00    +0.000 A 
ATOM     13  O   UNL     1     -61.837 -41.216 -71.132  0.00  0.00    +0.000 OA
ATOM     14  H   UNL     1     -66.700 -41.954 -71.703  0.00  0.00    +0.000 HD
ENDROOT
BRANCH   1  16
ATOM     15  C   UNL     1     -63.258 -38.896 -68.982  0.00  0.00    +0.000 C 
ATOM     16  C   UNL     1     -63.426 -40.400 -68.913  0.00  0.00    +0.000 C 
ATOM     17  O   UNL     1     -63.080 -41.005 -67.900  0.00  0.00    +0.000 OA
ENDBRANCH   1  16
BRANCH   2  18
ATOM     18  S   UNL     1     -66.574 -40.581 -69.334  0.00  0.00    +0.000 S 
ATOM     19  O   UNL     1     -67.629 -40.192 -70.337  0.00  0.00    +0.000 OA
BRANCH  18  20
ATOM     20  C   UNL     1     -67.207 -42.066 -68.493  0.00  0.00    +0.000 C 
BRANCH  20  21
ATOM     21  C   UNL     1     -67.502 -41.815 -67.051  0.00  0.00    +0.000 A 
ATOM     22  C   UNL     1     -68.214 -42.627 -66.130  0.00  0.00    +0.000 A 
ATOM     23  C   UNL     1     -68.103 -41.971 -64.930  0.00  0.00    +0.000 A 
ATOM     24  C   UNL     1     -68.566 -42.241 -63.556  0.00  0.00    +0.000 C 
ATOM     25  O   UNL     1     -67.382 -40.832 -65.112  0.00  0.00    +0.000 OA
ATOM     26  N   UNL     1     -66.998 -40.733 -66.439  0.00  0.00    +0.000 NA
ENDBRANCH  20  21
ENDBRANCH  18  20
ENDBRANCH   2  18
TORSDOF 4
