REMARK VINA RESULT:    -6.257     14.615     16.124
REMARK INTER + INTRA:          -8.576
REMARK INTER:                  -7.842
REMARK INTRA:                  -0.734
REMARK UNBOUND:                -0.856
REMARK  Name = 
REMARK  6 active torsions:
REMARK  status: ('A' for Active; 'I' for Inactive)
REMARK    1  A    between atoms: C_1  and  C_2
REMARK    2  A    between atoms: C_2  and  C_4
REMARK    3  A    between atoms: C_5  and  S_6
REMARK    4  A    between atoms: S_6  and  C_8
REMARK    5  A    between atoms: C_8  and  C_9
REMARK    6  A    between atoms: C_11  and  C_12
REMARK                            x       y       z     vdW  Elec       q    Type
REMARK                         _______ _______ _______ _____ _____    ______ ____
ROOT
ATOM      1  C   UNL     1     -53.424 -41.412 -77.952  0.00  0.00    +0.000 A 
ATOM      2  C   UNL     1     -54.752 -41.239 -78.131  0.00  0.00    +0.000 A 
ATOM      3  N   UNL     1     -55.385 -41.500 -79.330  0.00  0.00    +0.000 N 
ATOM      4  C   UNL     1     -54.695 -41.866 -80.498  0.00  0.00    +0.000 A 
ATOM      5  C   UNL     1     -55.386 -42.156 -81.686  0.00  0.00    +0.000 A 
ATOM      6 BR   UNL     1     -57.278 -41.993 -81.777  0.00  0.00    +0.000 Br
ATOM      7  C   UNL     1     -54.707 -42.578 -82.830  0.00  0.00    +0.000 A 
ATOM      8  C   UNL     1     -53.324 -42.711 -82.800  0.00  0.00    +0.000 A 
ATOM      9  C   UNL     1     -52.612 -42.439 -81.630  0.00  0.00    +0.000 A 
ATOM     10 CL   UNL     1     -50.896 -42.620 -81.758  0.00  0.00    +0.000 Cl
ATOM     11  C   UNL     1     -53.303 -42.045 -80.465  0.00  0.00    +0.000 A 
ATOM     12  C   UNL     1     -52.629 -41.826 -79.164  0.00  0.00    +0.000 A 
ATOM     13  O   UNL     1     -51.418 -41.976 -79.078  0.00  0.00    +0.000 OA
ATOM     14  H   UNL     1     -56.331 -41.146 -79.449  0.00  0.00    +0.000 HD
ENDROOT
BRANCH   1  16
ATOM     15  C   UNL     1     -52.592 -42.412 -75.702  0.00  0.00    +0.000 C 
ATOM     16  C   UNL     1     -52.691 -41.240 -76.648  0.00  0.00    +0.000 C 
ATOM     17  O   UNL     1     -52.205 -40.163 -76.326  0.00  0.00    +0.000 OA
ENDBRANCH   1  16
BRANCH   2  18
ATOM     18  S   UNL     1     -55.804 -40.522 -76.812  0.00  0.00    +0.000 S 
ATOM     19  O   UNL     1     -57.040 -40.069 -77.540  0.00  0.00    +0.000 OA
BRANCH  18  20
ATOM     20  C   UNL     1     -56.279 -42.049 -75.923  0.00  0.00    +0.000 C 
BRANCH  20  21
ATOM     21  C   UNL     1     -56.608 -41.787 -74.490  0.00  0.00    +0.000 A 
ATOM     22  C   UNL     1     -56.048 -42.373 -73.325  0.00  0.00    +0.000 A 
ATOM     23  C   UNL     1     -56.655 -41.718 -72.278  0.00  0.00    +0.000 A 
ATOM     24  C   UNL     1     -56.563 -41.804 -70.807  0.00  0.00    +0.000 C 
ATOM     25  O   UNL     1     -57.520 -40.795 -72.779  0.00  0.00    +0.000 OA
ATOM     26  N   UNL     1     -57.485 -40.829 -74.164  0.00  0.00    +0.000 NA
ENDBRANCH  20  21
ENDBRANCH  18  20
ENDBRANCH   2  18
TORSDOF 4
