REMARK VINA RESULT:    -6.035      3.213      5.417
REMARK INTER + INTRA:          -8.742
REMARK INTER:                  -8.064
REMARK INTRA:                  -0.678
REMARK UNBOUND:                -0.943
REMARK  Name = 
REMARK  6 active torsions:
REMARK  status: ('A' for Active; 'I' for Inactive)
REMARK    1  A    between atoms: C_1  and  C_2
REMARK    2  A    between atoms: C_4  and  C_5
REMARK    3  A    between atoms: C_5  and  S_6
REMARK    4  A    between atoms: S_6  and  C_8
REMARK    5  A    between atoms: C_20  and  C_21
REMARK    6  A    between atoms: C_21  and  C_23
REMARK                            x       y       z     vdW  Elec       q    Type
REMARK                         _______ _______ _______ _____ _____    ______ ____
ROOT
ATOM      1  C   UNL     1     -56.881 -41.629 -79.052  0.00  0.00    +0.000 A 
ATOM      2  N   UNL     1     -56.025 -41.808 -80.155  0.00  0.00    +0.000 N 
ATOM      3  C   UNL     1     -54.622 -41.943 -79.968  0.00  0.00    +0.000 A 
ATOM      4  C   UNL     1     -53.768 -42.501 -80.938  0.00  0.00    +0.000 A 
ATOM      5 BR   UNL     1     -54.463 -43.289 -82.517  0.00  0.00    +0.000 Br
ATOM      6  C   UNL     1     -52.378 -42.515 -80.759  0.00  0.00    +0.000 A 
ATOM      7  C   UNL     1     -51.826 -41.990 -79.584  0.00  0.00    +0.000 A 
ATOM      8  C   UNL     1     -52.652 -41.433 -78.608  0.00  0.00    +0.000 A 
ATOM      9 CL   UNL     1     -51.881 -40.879 -77.166  0.00  0.00    +0.000 Cl
ATOM     10  C   UNL     1     -54.039 -41.393 -78.815  0.00  0.00    +0.000 A 
ATOM     11  C   UNL     1     -54.983 -40.749 -77.881  0.00  0.00    +0.000 A 
ATOM     12  O   UNL     1     -54.655 -39.789 -77.194  0.00  0.00    +0.000 OA
ATOM     13  C   UNL     1     -56.395 -41.254 -77.848  0.00  0.00    +0.000 A 
ATOM     14  H   UNL     1     -56.415 -42.460 -80.849  0.00  0.00    +0.000 HD
ENDROOT
BRANCH   1  15
ATOM     15  S   UNL     1     -58.516 -42.367 -79.311  0.00  0.00    +0.000 S 
ATOM     16  O   UNL     1     -58.689 -42.364 -80.806  0.00  0.00    +0.000 OA
BRANCH  15  17
ATOM     17  C   UNL     1     -59.791 -41.277 -78.614  0.00  0.00    +0.000 C 
BRANCH  17  21
ATOM     18  C   UNL     1     -61.616 -37.609 -81.685  0.00  0.00    +0.000 C 
ATOM     19  C   UNL     1     -61.094 -38.517 -80.648  0.00  0.00    +0.000 A 
ATOM     20  C   UNL     1     -60.794 -39.858 -80.598  0.00  0.00    +0.000 A 
ATOM     21  C   UNL     1     -60.240 -40.051 -79.313  0.00  0.00    +0.000 A 
ATOM     22  N   UNL     1     -60.272 -38.906 -78.609  0.00  0.00    +0.000 NA
ATOM     23  O   UNL     1     -60.806 -37.950 -79.449  0.00  0.00    +0.000 OA
ENDBRANCH  17  21
ENDBRANCH  15  17
ENDBRANCH   1  15
BRANCH  13  24
ATOM     24  C   UNL     1     -56.943 -41.411 -76.471  0.00  0.00    +0.000 C 
ATOM     25  O   UNL     1     -57.636 -40.538 -75.976  0.00  0.00    +0.000 OA
BRANCH  24  26
ATOM     26  C   UNL     1     -56.673 -42.660 -75.735  0.00  0.00    +0.000 C 
ATOM     27  C   UNL     1     -57.360 -42.908 -74.417  0.00  0.00    +0.000 C 
ATOM     28  C   UNL     1     -55.883 -42.656 -74.448  0.00  0.00    +0.000 C 
ENDBRANCH  24  26
ENDBRANCH  13  24
TORSDOF 5
