REMARK VINA RESULT:    -5.123     10.616     12.826
REMARK INTER + INTRA:          -7.531
REMARK INTER:                  -6.772
REMARK INTRA:                  -0.760
REMARK UNBOUND:                -0.910
REMARK  Name = 
REMARK  6 active torsions:
REMARK  status: ('A' for Active; 'I' for Inactive)
REMARK    1  A    between atoms: C_1  and  C_2
REMARK    2  A    between atoms: C_4  and  C_5
REMARK    3  A    between atoms: C_5  and  S_6
REMARK    4  A    between atoms: S_6  and  C_8
REMARK    5  A    between atoms: C_20  and  C_21
REMARK    6  A    between atoms: C_21  and  C_23
REMARK                            x       y       z     vdW  Elec       q    Type
REMARK                         _______ _______ _______ _____ _____    ______ ____
ROOT
ATOM      1  C   UNL     1     -66.235 -41.813 -71.190  0.00  0.00    +0.000 A 
ATOM      2  N   UNL     1     -65.134 -41.953 -72.057  0.00  0.00    +0.000 N 
ATOM      3  C   UNL     1     -63.808 -41.977 -71.543  0.00  0.00    +0.000 A 
ATOM      4  C   UNL     1     -62.714 -42.492 -72.265  0.00  0.00    +0.000 A 
ATOM      5 BR   UNL     1     -62.964 -43.367 -73.929  0.00  0.00    +0.000 Br
ATOM      6  C   UNL     1     -61.407 -42.397 -71.767  0.00  0.00    +0.000 A 
ATOM      7  C   UNL     1     -61.184 -41.805 -70.518  0.00  0.00    +0.000 A 
ATOM      8  C   UNL     1     -62.252 -41.289 -69.784  0.00  0.00    +0.000 A 
ATOM      9 CL   UNL     1     -61.880 -40.645 -68.226  0.00  0.00    +0.000 Cl
ATOM     10  C   UNL     1     -63.551 -41.359 -70.310  0.00  0.00    +0.000 A 
ATOM     11  C   UNL     1     -64.729 -40.766 -69.647  0.00  0.00    +0.000 A 
ATOM     12  O   UNL     1     -64.638 -39.769 -68.942  0.00  0.00    +0.000 OA
ATOM     13  C   UNL     1     -66.072 -41.375 -69.923  0.00  0.00    +0.000 A 
ATOM     14  H   UNL     1     -65.305 -42.649 -72.795  0.00  0.00    +0.000 HD
ENDROOT
BRANCH   1  15
ATOM     15  S   UNL     1     -67.709 -42.678 -71.793  0.00  0.00    +0.000 S 
ATOM     16  O   UNL     1     -67.917 -43.789 -70.800  0.00  0.00    +0.000 OA
BRANCH  15  17
ATOM     17  C   UNL     1     -67.347 -43.446 -73.399  0.00  0.00    +0.000 C 
BRANCH  17  21
ATOM     18  C   UNL     1     -70.853 -46.959 -74.660  0.00  0.00    +0.000 C 
ATOM     19  C   UNL     1     -69.769 -45.973 -74.495  0.00  0.00    +0.000 A 
ATOM     20  C   UNL     1     -69.401 -45.098 -73.500  0.00  0.00    +0.000 A 
ATOM     21  C   UNL     1     -68.200 -44.517 -73.965  0.00  0.00    +0.000 A 
ATOM     22  N   UNL     1     -67.905 -44.967 -75.197  0.00  0.00    +0.000 NA
ATOM     23  O   UNL     1     -68.888 -45.878 -75.523  0.00  0.00    +0.000 OA
ENDBRANCH  17  21
ENDBRANCH  15  17
ENDBRANCH   1  15
BRANCH  13  24
ATOM     24  C   UNL     1     -66.916 -41.540 -68.705  0.00  0.00    +0.000 C 
ATOM     25  O   UNL     1     -67.980 -40.955 -68.605  0.00  0.00    +0.000 OA
BRANCH  24  26
ATOM     26  C   UNL     1     -66.464 -42.462 -67.646  0.00  0.00    +0.000 C 
ATOM     27  C   UNL     1     -65.758 -43.738 -68.026  0.00  0.00    +0.000 C 
ATOM     28  C   UNL     1     -67.133 -43.799 -67.434  0.00  0.00    +0.000 C 
ENDBRANCH  24  26
ENDBRANCH  13  24
TORSDOF 5
