REMARK VINA RESULT:    -5.345     16.538     18.474
REMARK INTER + INTRA:          -7.707
REMARK INTER:                  -6.646
REMARK INTRA:                  -1.061
REMARK UNBOUND:                -0.800
REMARK  Name = 
REMARK  8 active torsions:
REMARK  status: ('A' for Active; 'I' for Inactive)
REMARK    1  A    between atoms: C_1  and  C_2
REMARK    2  A    between atoms: C_4  and  C_5
REMARK    3  A    between atoms: C_5  and  S_6
REMARK    4  A    between atoms: S_6  and  C_8
REMARK    5  A    between atoms: C_20  and  C_21
REMARK    6  A    between atoms: C_21  and  C_23
REMARK    7  A    between atoms: C_23  and  C_24
REMARK    8  A    between atoms: C_23  and  C_25
REMARK                            x       y       z     vdW  Elec       q    Type
REMARK                         _______ _______ _______ _____ _____    ______ ____
ROOT
ATOM      1  C   UNL     1     -47.661 -26.173 -62.123  0.00  0.00    +0.000 A 
ATOM      2  N   UNL     1     -46.951 -26.835 -63.120  0.00  0.00    +0.000 N 
ATOM      3  C   UNL     1     -46.544 -26.178 -64.298  0.00  0.00    +0.000 A 
ATOM      4  C   UNL     1     -45.501 -26.668 -65.107  0.00  0.00    +0.000 A 
ATOM      5 BR   UNL     1     -44.468 -28.164 -64.567  0.00  0.00    +0.000 Br
ATOM      6  C   UNL     1     -45.170 -26.040 -66.311  0.00  0.00    +0.000 A 
ATOM      7  C   UNL     1     -45.872 -24.910 -66.721  0.00  0.00    +0.000 A 
ATOM      8  C   UNL     1     -46.913 -24.400 -65.924  0.00  0.00    +0.000 A 
ATOM      9 CL   UNL     1     -47.662 -22.956 -66.500  0.00  0.00    +0.000 Cl
ATOM     10  C   UNL     1     -47.252 -25.038 -64.713  0.00  0.00    +0.000 A 
ATOM     11  C   UNL     1     -48.353 -24.599 -63.818  0.00  0.00    +0.000 A 
ATOM     12  O   UNL     1     -49.287 -23.942 -64.268  0.00  0.00    +0.000 OA
ATOM     13  C   UNL     1     -48.302 -25.001 -62.346  0.00  0.00    +0.000 A 
ATOM     14  H   UNL     1     -46.315 -27.563 -62.766  0.00  0.00    +0.000 HD
ENDROOT
BRANCH   1  15
ATOM     15  S   UNL     1     -47.424 -26.968 -60.489  0.00  0.00    +0.000 S 
ATOM     16  O   UNL     1     -46.367 -28.008 -60.745  0.00  0.00    +0.000 OA
BRANCH  15  17
ATOM     17  C   UNL     1     -49.013 -27.817 -60.201  0.00  0.00    +0.000 C 
BRANCH  17  21
ATOM     18  C   UNL     1     -49.500 -32.221 -62.879  0.00  0.00    +0.000 C 
ATOM     19  C   UNL     1     -49.309 -31.083 -61.953  0.00  0.00    +0.000 A 
ATOM     20  C   UNL     1     -49.304 -29.712 -62.082  0.00  0.00    +0.000 A 
ATOM     21  C   UNL     1     -49.088 -29.217 -60.763  0.00  0.00    +0.000 A 
ATOM     22  N   UNL     1     -48.952 -30.245 -59.908  0.00  0.00    +0.000 NA
ATOM     23  O   UNL     1     -49.094 -31.401 -60.651  0.00  0.00    +0.000 OA
ENDBRANCH  17  21
ENDBRANCH  15  17
ENDBRANCH   1  15
BRANCH  13  24
ATOM     24  C   UNL     1     -48.922 -24.040 -61.357  0.00  0.00    +0.000 C 
ATOM     25  O   UNL     1     -48.353 -22.985 -61.079  0.00  0.00    +0.000 OA
BRANCH  24  26
ATOM     26  C   UNL     1     -50.226 -24.399 -60.644  0.00  0.00    +0.000 C 
ATOM     27  C   UNL     1     -50.335 -23.716 -59.283  0.00  0.00    +0.000 C 
ATOM     28  C   UNL     1     -51.454 -24.077 -61.500  0.00  0.00    +0.000 C 
ENDBRANCH  24  26
ENDBRANCH  13  24
TORSDOF 5
