REMARK VINA RESULT:    -6.178     13.533     14.463
REMARK INTER + INTRA:          -8.587
REMARK INTER:                  -7.660
REMARK INTRA:                  -0.927
REMARK UNBOUND:                -0.965
REMARK  Name = 
REMARK  6 active torsions:
REMARK  status: ('A' for Active; 'I' for Inactive)
REMARK    1  A    between atoms: C_1  and  C_2
REMARK    2  A    between atoms: C_2  and  C_4
REMARK    3  A    between atoms: C_5  and  S_6
REMARK    4  A    between atoms: S_6  and  C_8
REMARK    5  A    between atoms: C_8  and  C_9
REMARK    6  A    between atoms: C_11  and  C_12
REMARK                            x       y       z     vdW  Elec       q    Type
REMARK                         _______ _______ _______ _____ _____    ______ ____
ROOT
ATOM      1  C   UNL     1     -54.559 -42.385 -77.331  0.00  0.00    +0.000 A 
ATOM      2  C   UNL     1     -55.669 -42.788 -77.993  0.00  0.00    +0.000 A 
ATOM      3  N   UNL     1     -56.224 -44.042 -77.850  0.00  0.00    +0.000 N 
ATOM      4  C   UNL     1     -55.614 -45.065 -77.105  0.00  0.00    +0.000 A 
ATOM      5  C   UNL     1     -56.219 -46.333 -76.996  0.00  0.00    +0.000 A 
ATOM      6 BR   UNL     1     -57.843 -46.722 -77.902  0.00  0.00    +0.000 Br
ATOM      7  C   UNL     1     -55.647 -47.338 -76.217  0.00  0.00    +0.000 A 
ATOM      8  C   UNL     1     -54.462 -47.084 -75.535  0.00  0.00    +0.000 A 
ATOM      9  C   UNL     1     -53.854 -45.826 -75.609  0.00  0.00    +0.000 A 
ATOM     10 CL   UNL     1     -52.381 -45.672 -74.715  0.00  0.00    +0.000 Cl
ATOM     11  C   UNL     1     -54.442 -44.801 -76.377  0.00  0.00    +0.000 A 
ATOM     12  C   UNL     1     -53.876 -43.429 -76.484  0.00  0.00    +0.000 A 
ATOM     13  O   UNL     1     -52.826 -43.158 -75.914  0.00  0.00    +0.000 OA
ATOM     14  H   UNL     1     -56.820 -44.353 -78.618  0.00  0.00    +0.000 HD
ENDROOT
BRANCH   1  16
ATOM     15  C   UNL     1     -52.829 -40.758 -78.393  0.00  0.00    +0.000 C 
ATOM     16  C   UNL     1     -53.959 -41.007 -77.418  0.00  0.00    +0.000 C 
ATOM     17  O   UNL     1     -54.344 -40.086 -76.703  0.00  0.00    +0.000 OA
ENDBRANCH   1  16
BRANCH   2  18
ATOM     18  S   UNL     1     -56.445 -41.736 -79.273  0.00  0.00    +0.000 S 
ATOM     19  O   UNL     1     -56.582 -42.665 -80.449  0.00  0.00    +0.000 OA
BRANCH  18  20
ATOM     20  C   UNL     1     -58.120 -41.581 -78.555  0.00  0.00    +0.000 C 
BRANCH  20  21
ATOM     21  C   UNL     1     -58.087 -41.475 -77.066  0.00  0.00    +0.000 A 
ATOM     22  C   UNL     1     -57.719 -40.374 -76.250  0.00  0.00    +0.000 A 
ATOM     23  C   UNL     1     -57.957 -40.798 -74.966  0.00  0.00    +0.000 A 
ATOM     24  C   UNL     1     -57.814 -40.187 -73.630  0.00  0.00    +0.000 C 
ATOM     25  O   UNL     1     -58.440 -42.068 -75.000  0.00  0.00    +0.000 OA
ATOM     26  N   UNL     1     -58.529 -42.494 -76.314  0.00  0.00    +0.000 NA
ENDBRANCH  20  21
ENDBRANCH  18  20
ENDBRANCH   2  18
TORSDOF 4
