REMARK  Name = 
REMARK  6 active torsions:
REMARK  status: ('A' for Active; 'I' for Inactive)
REMARK    1  A    between atoms: C_1  and  C_2
REMARK    2  A    between atoms: C_2  and  C_4
REMARK    3  A    between atoms: C_5  and  S_6
REMARK    4  A    between atoms: S_6  and  C_8
REMARK    5  A    between atoms: C_8  and  C_9
REMARK    6  A    between atoms: C_13  and  C_14
REMARK                            x       y       z     vdW  Elec       q    Type
REMARK                         _______ _______ _______ _____ _____    ______ ____
ROOT
ATOM      1  C   UNL     1       3.185  -0.062   1.224  0.00  0.00    +0.000 A 
ATOM      2  C   UNL     1       2.883  -1.073   2.071  0.00  0.00    +0.000 A 
ATOM      3  N   UNL     1       3.548  -1.279   3.267  0.00  0.00    +0.000 N 
ATOM      4  C   UNL     1       4.685  -0.542   3.646  0.00  0.00    +0.000 A 
ATOM      5  C   UNL     1       5.334  -0.785   4.870  0.00  0.00    +0.000 A 
ATOM      6 BR   UNL     1       4.754  -2.178   6.024  0.00  0.00    +0.000 Br
ATOM      7  C   UNL     1       6.421  -0.011   5.277  0.00  0.00    +0.000 A 
ATOM      8  C   UNL     1       6.875   1.022   4.463  0.00  0.00    +0.000 A 
ATOM      9  C   UNL     1       6.239   1.296   3.249  0.00  0.00    +0.000 A 
ATOM     10 CL   UNL     1       6.925   2.602   2.342  0.00  0.00    +0.000 Cl
ATOM     11  C   UNL     1       5.124   0.530   2.848  0.00  0.00    +0.000 A 
ATOM     12  C   UNL     1       4.371   0.787   1.593  0.00  0.00    +0.000 A 
ATOM     13  O   UNL     1       4.739   1.679   0.838  0.00  0.00    +0.000 OA
ATOM     14  H   UNL     1       3.475  -2.218   3.662  0.00  0.00    +0.000 HD
ENDROOT
BRANCH   1  16
ATOM     15  C   UNL     1       2.503   1.660  -0.602  0.00  0.00    +0.000 C 
ATOM     16  C   UNL     1       2.436   0.251  -0.048  0.00  0.00    +0.000 C 
ATOM     17  O   UNL     1       1.749  -0.588  -0.626  0.00  0.00    +0.000 OA
ENDBRANCH   1  16
BRANCH   2  18
ATOM     18  S   UNL     1       1.674  -2.362   1.601  0.00  0.00    +0.000 S 
ATOM     19  O   UNL     1       2.484  -3.630   1.640  0.00  0.00    +0.000 OA
BRANCH  18  20
ATOM     20  C   UNL     1       0.616  -2.392   3.097  0.00  0.00    +0.000 C 
BRANCH  20  21
ATOM     21  C   UNL     1      -0.547  -3.368   2.983  0.00  0.00    +0.000 A 
ATOM     22  C   UNL     1      -1.871  -2.910   3.057  0.00  0.00    +0.000 A 
ATOM     23  C   UNL     1      -2.943  -3.805   2.964  0.00  0.00    +0.000 A 
ATOM     24  C   UNL     1      -2.712  -5.171   2.806  0.00  0.00    +0.000 A 
ATOM     25  C   UNL     1      -1.406  -5.652   2.750  0.00  0.00    +0.000 A 
ATOM     26  C   UNL     1      -0.326  -4.753   2.845  0.00  0.00    +0.000 A 
BRANCH  25  27
ATOM     27  C   UNL     1      -1.161  -7.062   2.606  0.00  0.00    +0.000 C 
ATOM     28  N   UNL     1      -0.979  -8.208   2.502  0.00  0.00    +0.000 NA
ENDBRANCH  25  27
ENDBRANCH  20  21
ENDBRANCH  18  20
ENDBRANCH   2  18
TORSDOF 5
