REMARK VINA RESULT:    -6.651     13.814     14.855
REMARK INTER + INTRA:          -9.494
REMARK INTER:                  -8.625
REMARK INTRA:                  -0.869
REMARK UNBOUND:                -0.899
REMARK  Name = 
REMARK  6 active torsions:
REMARK  status: ('A' for Active; 'I' for Inactive)
REMARK    1  A    between atoms: C_1  and  C_2
REMARK    2  A    between atoms: C_4  and  C_5
REMARK    3  A    between atoms: C_5  and  S_6
REMARK    4  A    between atoms: S_6  and  C_8
REMARK    5  A    between atoms: C_20  and  C_21
REMARK    6  A    between atoms: C_21  and  C_23
REMARK                            x       y       z     vdW  Elec       q    Type
REMARK                         _______ _______ _______ _____ _____    ______ ____
ROOT
ATOM      1  C   UNL     1     -57.494 -41.102 -62.679  0.00  0.00    +0.000 A 
ATOM      2  N   UNL     1     -57.062 -39.811 -62.318  0.00  0.00    +0.000 N 
ATOM      3  C   UNL     1     -56.009 -39.175 -63.031  0.00  0.00    +0.000 A 
ATOM      4  C   UNL     1     -55.788 -37.785 -62.996  0.00  0.00    +0.000 A 
ATOM      5 BR   UNL     1     -57.007 -36.622 -62.125  0.00  0.00    +0.000 Br
ATOM      6  C   UNL     1     -54.674 -37.212 -63.624  0.00  0.00    +0.000 A 
ATOM      7  C   UNL     1     -53.776 -38.028 -64.322  0.00  0.00    +0.000 A 
ATOM      8  C   UNL     1     -53.975 -39.408 -64.372  0.00  0.00    +0.000 A 
ATOM      9 CL   UNL     1     -52.852 -40.317 -65.318  0.00  0.00    +0.000 Cl
ATOM     10  C   UNL     1     -55.075 -39.973 -63.709  0.00  0.00    +0.000 A 
ATOM     11  C   UNL     1     -55.319 -41.427 -63.634  0.00  0.00    +0.000 A 
ATOM     12  O   UNL     1     -54.400 -42.236 -63.641  0.00  0.00    +0.000 OA
ATOM     13  C   UNL     1     -56.734 -41.895 -63.467  0.00  0.00    +0.000 A 
ATOM     14  H   UNL     1     -57.848 -39.186 -62.094  0.00  0.00    +0.000 HD
ENDROOT
BRANCH   1  15
ATOM     15  S   UNL     1     -59.262 -41.356 -62.371  0.00  0.00    +0.000 S 
ATOM     16  O   UNL     1     -59.774 -39.987 -62.013  0.00  0.00    +0.000 OA
BRANCH  15  17
ATOM     17  C   UNL     1     -59.477 -42.416 -60.912  0.00  0.00    +0.000 C 
BRANCH  17  21
ATOM     18  C   UNL     1     -61.860 -46.934 -61.271  0.00  0.00    +0.000 C 
ATOM     19  C   UNL     1     -61.337 -45.574 -61.044  0.00  0.00    +0.000 A 
ATOM     20  C   UNL     1     -60.177 -44.915 -61.378  0.00  0.00    +0.000 A 
ATOM     21  C   UNL     1     -60.376 -43.593 -60.925  0.00  0.00    +0.000 A 
ATOM     22  N   UNL     1     -61.558 -43.484 -60.292  0.00  0.00    +0.000 NA
ATOM     23  O   UNL     1     -62.155 -44.725 -60.371  0.00  0.00    +0.000 OA
ENDBRANCH  17  21
ENDBRANCH  15  17
ENDBRANCH   1  15
BRANCH  13  24
ATOM     24  C   UNL     1     -57.090 -43.052 -64.337  0.00  0.00    +0.000 C 
ATOM     25  O   UNL     1     -57.359 -44.135 -63.847  0.00  0.00    +0.000 OA
BRANCH  24  26
ATOM     26  C   UNL     1     -57.157 -42.850 -65.796  0.00  0.00    +0.000 C 
ATOM     27  C   UNL     1     -57.485 -41.484 -66.341  0.00  0.00    +0.000 C 
ATOM     28  C   UNL     1     -58.474 -42.600 -66.492  0.00  0.00    +0.000 C 
ENDBRANCH  24  26
ENDBRANCH  13  24
TORSDOF 5
