REMARK VINA RESULT:    -6.262     13.119     16.102
REMARK INTER + INTRA:          -9.003
REMARK INTER:                  -8.397
REMARK INTRA:                  -0.606
REMARK UNBOUND:                -0.910
REMARK  Name = 
REMARK  6 active torsions:
REMARK  status: ('A' for Active; 'I' for Inactive)
REMARK    1  A    between atoms: C_1  and  C_2
REMARK    2  A    between atoms: C_4  and  C_5
REMARK    3  A    between atoms: C_5  and  S_6
REMARK    4  A    between atoms: S_6  and  C_8
REMARK    5  A    between atoms: C_20  and  C_21
REMARK    6  A    between atoms: C_21  and  C_23
REMARK                            x       y       z     vdW  Elec       q    Type
REMARK                         _______ _______ _______ _____ _____    ______ ____
ROOT
ATOM      1  C   UNL     1     -54.314 -41.571 -78.858  0.00  0.00    +0.000 A 
ATOM      2  N   UNL     1     -55.592 -41.974 -79.291  0.00  0.00    +0.000 N 
ATOM      3  C   UNL     1     -56.759 -41.538 -78.605  0.00  0.00    +0.000 A 
ATOM      4  C   UNL     1     -58.043 -41.564 -79.180  0.00  0.00    +0.000 A 
ATOM      5 BR   UNL     1     -58.290 -42.024 -81.004  0.00  0.00    +0.000 Br
ATOM      6  C   UNL     1     -59.180 -41.229 -78.432  0.00  0.00    +0.000 A 
ATOM      7  C   UNL     1     -59.039 -40.834 -77.096  0.00  0.00    +0.000 A 
ATOM      8  C   UNL     1     -57.776 -40.799 -76.505  0.00  0.00    +0.000 A 
ATOM      9 CL   UNL     1     -57.701 -40.229 -74.876  0.00  0.00    +0.000 Cl
ATOM     10  C   UNL     1     -56.649 -41.171 -77.254  0.00  0.00    +0.000 A 
ATOM     11  C   UNL     1     -55.288 -41.246 -76.691  0.00  0.00    +0.000 A 
ATOM     12  O   UNL     1     -55.091 -41.522 -75.514  0.00  0.00    +0.000 OA
ATOM     13  C   UNL     1     -54.129 -41.053 -77.624  0.00  0.00    +0.000 A 
ATOM     14  H   UNL     1     -55.682 -41.951 -80.316  0.00  0.00    +0.000 HD
ENDROOT
BRANCH   1  15
ATOM     15  S   UNL     1     -53.135 -41.409 -80.225  0.00  0.00    +0.000 S 
ATOM     16  O   UNL     1     -53.800 -40.451 -81.175  0.00  0.00    +0.000 OA
BRANCH  15  17
ATOM     17  C   UNL     1     -52.978 -43.003 -81.083  0.00  0.00    +0.000 C 
BRANCH  17  21
ATOM     18  C   UNL     1     -49.696 -42.974 -85.013  0.00  0.00    +0.000 C 
ATOM     19  C   UNL     1     -50.735 -43.146 -83.980  0.00  0.00    +0.000 A 
ATOM     20  C   UNL     1     -50.984 -42.575 -82.755  0.00  0.00    +0.000 A 
ATOM     21  C   UNL     1     -52.210 -43.142 -82.341  0.00  0.00    +0.000 A 
ATOM     22  N   UNL     1     -52.633 -44.052 -83.236  0.00  0.00    +0.000 NA
ATOM     23  O   UNL     1     -51.709 -44.049 -84.259  0.00  0.00    +0.000 OA
ENDBRANCH  17  21
ENDBRANCH  15  17
ENDBRANCH   1  15
BRANCH  13  24
ATOM     24  C   UNL     1     -53.057 -40.175 -77.074  0.00  0.00    +0.000 C 
ATOM     25  O   UNL     1     -53.102 -38.968 -77.235  0.00  0.00    +0.000 OA
BRANCH  24  26
ATOM     26  C   UNL     1     -51.967 -40.788 -76.291  0.00  0.00    +0.000 C 
ATOM     27  C   UNL     1     -50.729 -39.984 -75.989  0.00  0.00    +0.000 C 
ATOM     28  C   UNL     1     -50.647 -41.145 -76.933  0.00  0.00    +0.000 C 
ENDBRANCH  24  26
ENDBRANCH  13  24
TORSDOF 5
