REMARK VINA RESULT:    -6.238      4.044      6.495
REMARK INTER + INTRA:          -8.366
REMARK INTER:                  -7.303
REMARK INTRA:                  -1.063
REMARK UNBOUND:                -0.670
REMARK  Name = 
REMARK  6 active torsions:
REMARK  status: ('A' for Active; 'I' for Inactive)
REMARK    1  A    between atoms: C_1  and  C_2
REMARK    2  A    between atoms: C_2  and  C_4
REMARK    3  A    between atoms: C_5  and  S_6
REMARK    4  A    between atoms: S_6  and  C_8
REMARK    5  A    between atoms: C_8  and  C_9
REMARK    6  A    between atoms: C_11  and  C_12
REMARK                            x       y       z     vdW  Elec       q    Type
REMARK                         _______ _______ _______ _____ _____    ______ ____
ROOT
ATOM      1  C   UNL     1     -53.393 -41.782 -77.929  0.00  0.00    +0.000 A 
ATOM      2  C   UNL     1     -54.731 -41.694 -78.104  0.00  0.00    +0.000 A 
ATOM      3  N   UNL     1     -55.349 -41.886 -79.325  0.00  0.00    +0.000 N 
ATOM      4  C   UNL     1     -54.636 -42.059 -80.523  0.00  0.00    +0.000 A 
ATOM      5  C   UNL     1     -55.308 -42.224 -81.749  0.00  0.00    +0.000 A 
ATOM      6 BR   UNL     1     -57.203 -42.133 -81.842  0.00  0.00    +0.000 Br
ATOM      7  C   UNL     1     -54.607 -42.454 -82.931  0.00  0.00    +0.000 A 
ATOM      8  C   UNL     1     -53.218 -42.532 -82.900  0.00  0.00    +0.000 A 
ATOM      9  C   UNL     1     -52.523 -42.390 -81.690  0.00  0.00    +0.000 A 
ATOM     10 CL   UNL     1     -50.804 -42.516 -81.819  0.00  0.00    +0.000 Cl
ATOM     11  C   UNL     1     -53.234 -42.172 -80.494  0.00  0.00    +0.000 A 
ATOM     12  C   UNL     1     -52.572 -42.007 -79.171  0.00  0.00    +0.000 A 
ATOM     13  O   UNL     1     -51.351 -42.005 -79.099  0.00  0.00    +0.000 OA
ATOM     14  H   UNL     1     -56.282 -41.479 -79.420  0.00  0.00    +0.000 HD
ENDROOT
BRANCH   1  16
ATOM     15  C   UNL     1     -52.594 -42.820 -75.678  0.00  0.00    +0.000 C 
ATOM     16  C   UNL     1     -52.685 -41.629 -76.606  0.00  0.00    +0.000 C 
ATOM     17  O   UNL     1     -52.198 -40.556 -76.251  0.00  0.00    +0.000 OA
ENDBRANCH   1  16
BRANCH   2  18
ATOM     18  S   UNL     1     -55.824 -41.130 -76.752  0.00  0.00    +0.000 S 
ATOM     19  O   UNL     1     -56.547 -39.953 -77.353  0.00  0.00    +0.000 OA
BRANCH  18  20
ATOM     20  C   UNL     1     -57.027 -42.505 -76.730  0.00  0.00    +0.000 C 
BRANCH  20  21
ATOM     21  C   UNL     1     -56.378 -43.853 -76.692  0.00  0.00    +0.000 A 
ATOM     22  C   UNL     1     -55.767 -44.554 -75.617  0.00  0.00    +0.000 A 
ATOM     23  C   UNL     1     -55.409 -45.767 -76.150  0.00  0.00    +0.000 A 
ATOM     24  C   UNL     1     -54.740 -46.974 -75.621  0.00  0.00    +0.000 C 
ATOM     25  O   UNL     1     -55.788 -45.809 -77.452  0.00  0.00    +0.000 OA
ATOM     26  N   UNL     1     -56.400 -44.617 -77.795  0.00  0.00    +0.000 NA
ENDBRANCH  20  21
ENDBRANCH  18  20
ENDBRANCH   2  18
TORSDOF 4
