REMARK VINA RESULT:    -7.225     10.067     12.809
REMARK INTER + INTRA:         -10.279
REMARK INTER:                  -9.169
REMARK INTRA:                  -1.109
REMARK UNBOUND:                -0.942
REMARK  Name = 
REMARK  8 active torsions:
REMARK  status: ('A' for Active; 'I' for Inactive)
REMARK    1  A    between atoms: C_1  and  C_2
REMARK    2  A    between atoms: C_4  and  C_5
REMARK    3  A    between atoms: C_5  and  S_6
REMARK    4  A    between atoms: S_6  and  C_8
REMARK    5  A    between atoms: C_20  and  C_21
REMARK    6  A    between atoms: C_21  and  C_23
REMARK    7  A    between atoms: C_23  and  C_24
REMARK    8  A    between atoms: C_23  and  C_25
REMARK                            x       y       z     vdW  Elec       q    Type
REMARK                         _______ _______ _______ _____ _____    ______ ____
ROOT
ATOM      1  C   UNL     1     -55.689 -42.149 -77.167  0.00  0.00    +0.000 A 
ATOM      2  N   UNL     1     -54.952 -40.968 -77.126  0.00  0.00    +0.000 N 
ATOM      3  C   UNL     1     -53.583 -40.960 -76.784  0.00  0.00    +0.000 A 
ATOM      4  C   UNL     1     -52.739 -39.879 -77.104  0.00  0.00    +0.000 A 
ATOM      5 CL   UNL     1     -53.308 -38.573 -78.082  0.00  0.00    +0.000 Cl
ATOM      6  C   UNL     1     -51.415 -39.846 -76.664  0.00  0.00    +0.000 A 
ATOM      7  C   UNL     1     -50.916 -40.901 -75.897  0.00  0.00    +0.000 A 
ATOM      8  C   UNL     1     -51.736 -41.992 -75.582  0.00  0.00    +0.000 A 
ATOM      9 CL   UNL     1     -50.989 -43.265 -74.687  0.00  0.00    +0.000 Cl
ATOM     10  C   UNL     1     -53.071 -42.014 -76.015  0.00  0.00    +0.000 A 
ATOM     11  C   UNL     1     -54.051 -43.076 -75.673  0.00  0.00    +0.000 A 
ATOM     12  O   UNL     1     -53.913 -43.704 -74.630  0.00  0.00    +0.000 OA
ATOM     13  C   UNL     1     -55.255 -43.300 -76.580  0.00  0.00    +0.000 A 
ATOM     14  H   UNL     1     -55.231 -40.285 -77.843  0.00  0.00    +0.000 HD
ENDROOT
BRANCH   1  15
ATOM     15  S   UNL     1     -57.133 -41.992 -78.294  0.00  0.00    +0.000 S 
ATOM     16  O   UNL     1     -56.606 -41.163 -79.434  0.00  0.00    +0.000 OA
BRANCH  15  17
ATOM     17  C   UNL     1     -58.288 -40.933 -77.331  0.00  0.00    +0.000 C 
BRANCH  17  21
ATOM     18  C   UNL     1     -57.722 -41.200 -72.198  0.00  0.00    +0.000 C 
ATOM     19  C   UNL     1     -58.017 -41.282 -73.645  0.00  0.00    +0.000 A 
ATOM     20  C   UNL     1     -57.735 -40.504 -74.743  0.00  0.00    +0.000 A 
ATOM     21  C   UNL     1     -58.290 -41.209 -75.848  0.00  0.00    +0.000 A 
ATOM     22  N   UNL     1     -58.897 -42.328 -75.418  0.00  0.00    +0.000 NA
ATOM     23  O   UNL     1     -58.719 -42.372 -74.049  0.00  0.00    +0.000 OA
ENDBRANCH  17  21
ENDBRANCH  15  17
ENDBRANCH   1  15
BRANCH  13  24
ATOM     24  C   UNL     1     -55.721 -44.738 -76.671  0.00  0.00    +0.000 C 
ATOM     25  O   UNL     1     -56.889 -45.026 -76.378  0.00  0.00    +0.000 OA
BRANCH  24  26
ATOM     26  C   UNL     1     -54.768 -45.881 -76.966  0.00  0.00    +0.000 C 
ATOM     27  C   UNL     1     -54.768 -46.861 -75.807  0.00  0.00    +0.000 C 
ATOM     28  C   UNL     1     -55.066 -46.530 -78.312  0.00  0.00    +0.000 C 
ENDBRANCH  24  26
ENDBRANCH  13  24
TORSDOF 5
