REMARK VINA RESULT:    -5.735     11.671     14.326
REMARK INTER + INTRA:          -8.305
REMARK INTER:                  -7.477
REMARK INTRA:                  -0.828
REMARK UNBOUND:                -0.894
REMARK  Name = 
REMARK  8 active torsions:
REMARK  status: ('A' for Active; 'I' for Inactive)
REMARK    1  A    between atoms: C_1  and  C_2
REMARK    2  A    between atoms: C_4  and  C_5
REMARK    3  A    between atoms: C_5  and  S_6
REMARK    4  A    between atoms: S_6  and  C_8
REMARK    5  A    between atoms: C_20  and  C_21
REMARK    6  A    between atoms: C_21  and  C_23
REMARK    7  A    between atoms: C_23  and  C_24
REMARK    8  A    between atoms: C_23  and  C_25
REMARK                            x       y       z     vdW  Elec       q    Type
REMARK                         _______ _______ _______ _____ _____    ______ ____
ROOT
ATOM      1  C   UNL     1     -55.936 -39.487 -62.286  0.00  0.00    +0.000 A 
ATOM      2  N   UNL     1     -56.966 -40.261 -61.757  0.00  0.00    +0.000 N 
ATOM      3  C   UNL     1     -57.362 -41.476 -62.356  0.00  0.00    +0.000 A 
ATOM      4  C   UNL     1     -58.103 -42.448 -61.656  0.00  0.00    +0.000 A 
ATOM      5 CL   UNL     1     -58.424 -42.267 -59.968  0.00  0.00    +0.000 Cl
ATOM      6  C   UNL     1     -58.573 -43.594 -62.298  0.00  0.00    +0.000 A 
ATOM      7  C   UNL     1     -58.303 -43.784 -63.655  0.00  0.00    +0.000 A 
ATOM      8  C   UNL     1     -57.555 -42.836 -64.365  0.00  0.00    +0.000 A 
ATOM      9 CL   UNL     1     -57.230 -43.214 -66.017  0.00  0.00    +0.000 Cl
ATOM     10  C   UNL     1     -57.097 -41.679 -63.718  0.00  0.00    +0.000 A 
ATOM     11  C   UNL     1     -56.366 -40.572 -64.386  0.00  0.00    +0.000 A 
ATOM     12  O   UNL     1     -56.552 -40.368 -65.580  0.00  0.00    +0.000 OA
ATOM     13  C   UNL     1     -55.473 -39.659 -63.556  0.00  0.00    +0.000 A 
ATOM     14  H   UNL     1     -57.008 -40.242 -60.730  0.00  0.00    +0.000 HD
ENDROOT
BRANCH   1  15
ATOM     15  S   UNL     1     -55.168 -38.431 -60.992  0.00  0.00    +0.000 S 
ATOM     16  O   UNL     1     -55.794 -38.922 -59.715  0.00  0.00    +0.000 OA
BRANCH  15  17
ATOM     17  C   UNL     1     -55.872 -36.771 -61.349  0.00  0.00    +0.000 C 
BRANCH  17  21
ATOM     18  C   UNL     1     -52.008 -33.343 -61.589  0.00  0.00    +0.000 C 
ATOM     19  C   UNL     1     -53.163 -34.258 -61.711  0.00  0.00    +0.000 A 
ATOM     20  C   UNL     1     -53.648 -35.320 -60.983  0.00  0.00    +0.000 A 
ATOM     21  C   UNL     1     -54.841 -35.713 -61.653  0.00  0.00    +0.000 A 
ATOM     22  N   UNL     1     -55.031 -34.944 -62.738  0.00  0.00    +0.000 NA
ATOM     23  O   UNL     1     -53.989 -34.037 -62.767  0.00  0.00    +0.000 OA
ENDBRANCH  17  21
ENDBRANCH  15  17
ENDBRANCH   1  15
BRANCH  13  24
ATOM     24  C   UNL     1     -54.248 -39.140 -64.282  0.00  0.00    +0.000 C 
ATOM     25  O   UNL     1     -54.050 -37.920 -64.360  0.00  0.00    +0.000 OA
BRANCH  24  26
ATOM     26  C   UNL     1     -53.318 -40.055 -65.056  0.00  0.00    +0.000 C 
ATOM     27  C   UNL     1     -52.135 -39.260 -65.578  0.00  0.00    +0.000 C 
ATOM     28  C   UNL     1     -52.918 -41.276 -64.237  0.00  0.00    +0.000 C 
ENDBRANCH  24  26
ENDBRANCH  13  24
TORSDOF 5
