REMARK  Name = 
REMARK  6 active torsions:
REMARK  status: ('A' for Active; 'I' for Inactive)
REMARK    1  A    between atoms: C_1  and  C_2
REMARK    2  A    between atoms: C_2  and  C_4
REMARK    3  A    between atoms: C_5  and  S_6
REMARK    4  A    between atoms: S_6  and  C_8
REMARK    5  A    between atoms: C_8  and  C_9
REMARK    6  A    between atoms: C_11  and  C_12
REMARK                            x       y       z     vdW  Elec       q    Type
REMARK                         _______ _______ _______ _____ _____    ______ ____
ROOT
ATOM      1  C   UNL     1       3.254   1.192  -0.388  0.00  0.00    +0.000 A 
ATOM      2  C   UNL     1       2.977   2.445   0.044  0.00  0.00    +0.000 A 
ATOM      3  N   UNL     1       3.651   3.569  -0.400  0.00  0.00    +0.000 N 
ATOM      4  C   UNL     1       4.821   3.489  -1.179  0.00  0.00    +0.000 A 
ATOM      5  C   UNL     1       5.541   4.648  -1.523  0.00  0.00    +0.000 A 
ATOM      6 BR   UNL     1       5.000   6.357  -0.893  0.00  0.00    +0.000 Br
ATOM      7  C   UNL     1       6.676   4.578  -2.328  0.00  0.00    +0.000 A 
ATOM      8  C   UNL     1       7.104   3.344  -2.806  0.00  0.00    +0.000 A 
ATOM      9  C   UNL     1       6.390   2.179  -2.501  0.00  0.00    +0.000 A 
ATOM     10 CL   UNL     1       7.062   0.719  -3.141  0.00  0.00    +0.000 Cl
ATOM     11  C   UNL     1       5.229   2.252  -1.705  0.00  0.00    +0.000 A 
ATOM     12  C   UNL     1       4.393   1.067  -1.367  0.00  0.00    +0.000 A 
ATOM     13  O   UNL     1       4.653  -0.017  -1.873  0.00  0.00    +0.000 OA
ATOM     14  H   UNL     1       3.616   4.369   0.235  0.00  0.00    +0.000 HD
ENDROOT
BRANCH   1  16
ATOM     15  C   UNL     1       2.607  -1.308  -0.773  0.00  0.00    +0.000 C 
ATOM     16  C   UNL     1       2.527  -0.049   0.066  0.00  0.00    +0.000 C 
ATOM     17  O   UNL     1       1.861  -0.067   1.103  0.00  0.00    +0.000 OA
ENDBRANCH   1  16
BRANCH   2  18
ATOM     18  S   UNL     1       1.787   2.755   1.403  0.00  0.00    +0.000 S 
ATOM     19  O   UNL     1       2.608   3.518   2.409  0.00  0.00    +0.000 OA
BRANCH  18  20
ATOM     20  C   UNL     1       0.718   3.991   0.585  0.00  0.00    +0.000 C 
BRANCH  20  21
ATOM     21  C   UNL     1      -0.390   4.468   1.472  0.00  0.00    +0.000 A 
ATOM     22  C   UNL     1      -0.324   5.112   2.735  0.00  0.00    +0.000 A 
ATOM     23  C   UNL     1      -1.626   5.436   3.032  0.00  0.00    +0.000 A 
ATOM     24  C   UNL     1      -2.299   6.135   4.144  0.00  0.00    +0.000 C 
ATOM     25  O   UNL     1      -2.428   5.000   2.020  0.00  0.00    +0.000 OA
ATOM     26  N   UNL     1      -1.657   4.401   1.040  0.00  0.00    +0.000 NA
ENDBRANCH  20  21
ENDBRANCH  18  20
ENDBRANCH   2  18
TORSDOF 4
