MODEL 1
REMARK VINA RESULT:    -7.693      0.000      0.000
REMARK INTER + INTRA:         -10.852
REMARK INTER:                  -9.942
REMARK INTRA:                  -0.910
REMARK UNBOUND:                -0.910
REMARK  Name = 
REMARK  6 active torsions:
REMARK  status: ('A' for Active; 'I' for Inactive)
REMARK    1  A    between atoms: C_1  and  C_2
REMARK    2  A    between atoms: C_4  and  C_5
REMARK    3  A    between atoms: C_5  and  S_6
REMARK    4  A    between atoms: S_6  and  C_8
REMARK    5  A    between atoms: C_20  and  C_21
REMARK    6  A    between atoms: C_21  and  C_23
REMARK                            x       y       z     vdW  Elec       q    Type
REMARK                         _______ _______ _______ _____ _____    ______ ____
ROOT
ATOM      1  C   UNL     1     -55.741 -41.420 -63.316  0.00  0.00    +0.000 A 
ATOM      2  N   UNL     1     -54.415 -41.059 -63.621  0.00  0.00    +0.000 N 
ATOM      3  C   UNL     1     -53.407 -42.053 -63.757  0.00  0.00    +0.000 A 
ATOM      4  C   UNL     1     -52.189 -41.825 -64.425  0.00  0.00    +0.000 A 
ATOM      5 BR   UNL     1     -51.873 -40.206 -65.360  0.00  0.00    +0.000 Br
ATOM      6  C   UNL     1     -51.178 -42.797 -64.441  0.00  0.00    +0.000 A 
ATOM      7  C   UNL     1     -51.390 -44.026 -63.807  0.00  0.00    +0.000 A 
ATOM      8  C   UNL     1     -52.590 -44.276 -63.141  0.00  0.00    +0.000 A 
ATOM      9 CL   UNL     1     -52.781 -45.848 -62.453  0.00  0.00    +0.000 Cl
ATOM     10  C   UNL     1     -53.579 -43.282 -63.101  0.00  0.00    +0.000 A 
ATOM     11  C   UNL     1     -54.842 -43.422 -62.350  0.00  0.00    +0.000 A 
ATOM     12  O   UNL     1     -54.915 -44.095 -61.330  0.00  0.00    +0.000 OA
ATOM     13  C   UNL     1     -56.034 -42.645 -62.827  0.00  0.00    +0.000 A 
ATOM     14  H   UNL     1     -54.366 -40.319 -64.335  0.00  0.00    +0.000 HD
ENDROOT
BRANCH   1  15
ATOM     15  S   UNL     1     -56.956 -40.294 -64.053  0.00  0.00    +0.000 S 
ATOM     16  O   UNL     1     -57.770 -39.812 -62.883  0.00  0.00    +0.000 OA
BRANCH  15  17
ATOM     17  C   UNL     1     -58.069 -41.231 -65.141  0.00  0.00    +0.000 C 
BRANCH  17  21
ATOM     18  C   UNL     1     -55.716 -42.882 -69.378  0.00  0.00    +0.000 C 
ATOM     19  C   UNL     1     -56.571 -42.490 -68.242  0.00  0.00    +0.000 A 
ATOM     20  C   UNL     1     -56.344 -41.908 -67.017  0.00  0.00    +0.000 A 
ATOM     21  C   UNL     1     -57.632 -41.731 -66.464  0.00  0.00    +0.000 A 
ATOM     22  N   UNL     1     -58.570 -42.243 -67.281  0.00  0.00    +0.000 NA
ATOM     23  O   UNL     1     -57.901 -42.715 -68.391  0.00  0.00    +0.000 OA
ENDBRANCH  17  21
ENDBRANCH  15  17
ENDBRANCH   1  15
BRANCH  13  24
ATOM     24  C   UNL     1     -57.299 -43.433 -62.834  0.00  0.00    +0.000 C 
ATOM     25  O   UNL     1     -57.527 -44.232 -63.725  0.00  0.00    +0.000 OA
BRANCH  24  26
ATOM     26  C   UNL     1     -58.248 -43.264 -61.717  0.00  0.00    +0.000 C 
ATOM     27  C   UNL     1     -59.568 -43.990 -61.750  0.00  0.00    +0.000 C 
ATOM     28  C   UNL     1     -59.538 -42.499 -61.895  0.00  0.00    +0.000 C 
ENDBRANCH  24  26
ENDBRANCH  13  24
TORSDOF 5
ENDMDL
MODEL 2
REMARK VINA RESULT:    -7.431      8.597     12.609
REMARK INTER + INTRA:         -10.514
REMARK INTER:                  -9.606
REMARK INTRA:                  -0.908
REMARK UNBOUND:                -0.910
REMARK  Name = 
REMARK  6 active torsions:
REMARK  status: ('A' for Active; 'I' for Inactive)
REMARK    1  A    between atoms: C_1  and  C_2
REMARK    2  A    between atoms: C_4  and  C_5
REMARK    3  A    between atoms: C_5  and  S_6
REMARK    4  A    between atoms: S_6  and  C_8
REMARK    5  A    between atoms: C_20  and  C_21
REMARK    6  A    between atoms: C_21  and  C_23
REMARK                            x       y       z     vdW  Elec       q    Type
REMARK                         _______ _______ _______ _____ _____    ______ ____
ROOT
ATOM      1  C   UNL     1     -55.653 -42.799 -76.637  0.00  0.00    +0.000 A 
ATOM      2  N   UNL     1     -54.331 -43.175 -76.330  0.00  0.00    +0.000 N 
ATOM      3  C   UNL     1     -53.312 -42.193 -76.196  0.00  0.00    +0.000 A 
ATOM      4  C   UNL     1     -52.098 -42.432 -75.527  0.00  0.00    +0.000 A 
ATOM      5 BR   UNL     1     -51.802 -44.052 -74.585  0.00  0.00    +0.000 Br
ATOM      6  C   UNL     1     -51.075 -41.473 -75.513  0.00  0.00    +0.000 A 
ATOM      7  C   UNL     1     -51.271 -40.243 -76.152  0.00  0.00    +0.000 A 
ATOM      8  C   UNL     1     -52.468 -39.982 -76.821  0.00  0.00    +0.000 A 
ATOM      9 CL   UNL     1     -52.639 -38.410 -77.514  0.00  0.00    +0.000 Cl
ATOM     10  C   UNL     1     -53.469 -40.964 -76.857  0.00  0.00    +0.000 A 
ATOM     11  C   UNL     1     -54.729 -40.812 -77.610  0.00  0.00    +0.000 A 
ATOM     12  O   UNL     1     -54.793 -40.142 -78.633  0.00  0.00    +0.000 OA
ATOM     13  C   UNL     1     -55.930 -41.572 -77.131  0.00  0.00    +0.000 A 
ATOM     14  H   UNL     1     -54.293 -43.912 -75.612  0.00  0.00    +0.000 HD
ENDROOT
BRANCH   1  15
ATOM     15  S   UNL     1     -56.882 -43.907 -75.897  0.00  0.00    +0.000 S 
ATOM     16  O   UNL     1     -57.657 -44.436 -77.073  0.00  0.00    +0.000 OA
BRANCH  15  17
ATOM     17  C   UNL     1     -58.033 -42.941 -74.876  0.00  0.00    +0.000 C 
BRANCH  17  21
ATOM     18  C   UNL     1     -55.767 -41.060 -70.688  0.00  0.00    +0.000 C 
ATOM     19  C   UNL     1     -56.593 -41.496 -71.829  0.00  0.00    +0.000 A 
ATOM     20  C   UNL     1     -56.354 -42.215 -72.977  0.00  0.00    +0.000 A 
ATOM     21  C   UNL     1     -57.623 -42.346 -73.584  0.00  0.00    +0.000 A 
ATOM     22  N   UNL     1     -58.555 -41.682 -72.877  0.00  0.00    +0.000 NA
ATOM     23  O   UNL     1     -57.905 -41.154 -71.781  0.00  0.00    +0.000 OA
ENDBRANCH  17  21
ENDBRANCH  15  17
ENDBRANCH   1  15
BRANCH  13  24
ATOM     24  C   UNL     1     -57.186 -40.769 -77.129  0.00  0.00    +0.000 C 
ATOM     25  O   UNL     1     -57.392 -39.944 -76.256  0.00  0.00    +0.000 OA
BRANCH  24  26
ATOM     26  C   UNL     1     -58.152 -40.957 -78.228  0.00  0.00    +0.000 C 
ATOM     27  C   UNL     1     -59.462 -40.212 -78.198  0.00  0.00    +0.000 C 
ATOM     28  C   UNL     1     -59.450 -41.699 -78.012  0.00  0.00    +0.000 C 
ENDBRANCH  24  26
ENDBRANCH  13  24
TORSDOF 5
ENDMDL
MODEL 3
REMARK VINA RESULT:    -6.721      3.318      5.680
REMARK INTER + INTRA:          -9.596
REMARK INTER:                  -8.711
REMARK INTRA:                  -0.885
REMARK UNBOUND:                -0.910
REMARK  Name = 
REMARK  6 active torsions:
REMARK  status: ('A' for Active; 'I' for Inactive)
REMARK    1  A    between atoms: C_1  and  C_2
REMARK    2  A    between atoms: C_4  and  C_5
REMARK    3  A    between atoms: C_5  and  S_6
REMARK    4  A    between atoms: S_6  and  C_8
REMARK    5  A    between atoms: C_20  and  C_21
REMARK    6  A    between atoms: C_21  and  C_23
REMARK                            x       y       z     vdW  Elec       q    Type
REMARK                         _______ _______ _______ _____ _____    ______ ____
ROOT
ATOM      1  C   UNL     1     -57.825 -41.047 -62.751  0.00  0.00    +0.000 A 
ATOM      2  N   UNL     1     -57.361 -39.770 -62.380  0.00  0.00    +0.000 N 
ATOM      3  C   UNL     1     -56.262 -39.175 -63.059  0.00  0.00    +0.000 A 
ATOM      4  C   UNL     1     -55.995 -37.793 -63.023  0.00  0.00    +0.000 A 
ATOM      5 BR   UNL     1     -57.202 -36.583 -62.200  0.00  0.00    +0.000 Br
ATOM      6  C   UNL     1     -54.840 -37.263 -63.614  0.00  0.00    +0.000 A 
ATOM      7  C   UNL     1     -53.948 -38.114 -64.277  0.00  0.00    +0.000 A 
ATOM      8  C   UNL     1     -54.193 -39.486 -64.327  0.00  0.00    +0.000 A 
ATOM      9 CL   UNL     1     -53.071 -40.439 -65.230  0.00  0.00    +0.000 Cl
ATOM     10  C   UNL     1     -55.334 -40.009 -63.701  0.00  0.00    +0.000 A 
ATOM     11  C   UNL     1     -55.631 -41.453 -63.628  0.00  0.00    +0.000 A 
ATOM     12  O   UNL     1     -54.741 -42.294 -63.599  0.00  0.00    +0.000 OA
ATOM     13  C   UNL     1     -57.067 -41.870 -63.508  0.00  0.00    +0.000 A 
ATOM     14  H   UNL     1     -58.132 -39.116 -62.187  0.00  0.00    +0.000 HD
ENDROOT
BRANCH   1  15
ATOM     15  S   UNL     1     -59.610 -41.237 -62.503  0.00  0.00    +0.000 S 
ATOM     16  O   UNL     1     -60.125 -39.826 -62.428  0.00  0.00    +0.000 OA
BRANCH  15  17
ATOM     17  C   UNL     1     -59.920 -42.016 -60.891  0.00  0.00    +0.000 C 
BRANCH  17  21
ATOM     18  C   UNL     1     -61.705 -46.695 -59.824  0.00  0.00    +0.000 C 
ATOM     19  C   UNL     1     -61.115 -45.434 -60.310  0.00  0.00    +0.000 A 
ATOM     20  C   UNL     1     -61.125 -44.130 -59.875  0.00  0.00    +0.000 A 
ATOM     21  C   UNL     1     -60.269 -43.451 -60.769  0.00  0.00    +0.000 A 
ATOM     22  N   UNL     1     -59.828 -44.285 -61.726  0.00  0.00    +0.000 NA
ATOM     23  O   UNL     1     -60.358 -45.524 -61.434  0.00  0.00    +0.000 OA
ENDBRANCH  17  21
ENDBRANCH  15  17
ENDBRANCH   1  15
BRANCH  13  24
ATOM     24  C   UNL     1     -57.432 -43.019 -64.384  0.00  0.00    +0.000 C 
ATOM     25  O   UNL     1     -57.396 -44.160 -63.958  0.00  0.00    +0.000 OA
BRANCH  24  26
ATOM     26  C   UNL     1     -57.885 -42.747 -65.762  0.00  0.00    +0.000 C 
ATOM     27  C   UNL     1     -57.851 -43.853 -66.785  0.00  0.00    +0.000 C 
ATOM     28  C   UNL     1     -56.907 -42.697 -66.911  0.00  0.00    +0.000 C 
ENDBRANCH  24  26
ENDBRANCH  13  24
TORSDOF 5
ENDMDL
MODEL 4
REMARK VINA RESULT:    -6.679     10.670     12.707
REMARK INTER + INTRA:          -9.542
REMARK INTER:                  -8.945
REMARK INTRA:                  -0.597
REMARK UNBOUND:                -0.910
REMARK  Name = 
REMARK  6 active torsions:
REMARK  status: ('A' for Active; 'I' for Inactive)
REMARK    1  A    between atoms: C_1  and  C_2
REMARK    2  A    between atoms: C_4  and  C_5
REMARK    3  A    between atoms: C_5  and  S_6
REMARK    4  A    between atoms: S_6  and  C_8
REMARK    5  A    between atoms: C_20  and  C_21
REMARK    6  A    between atoms: C_21  and  C_23
REMARK                            x       y       z     vdW  Elec       q    Type
REMARK                         _______ _______ _______ _____ _____    ______ ____
ROOT
ATOM      1  C   UNL     1     -55.352 -42.534 -77.238  0.00  0.00    +0.000 A 
ATOM      2  N   UNL     1     -54.783 -41.249 -77.158  0.00  0.00    +0.000 N 
ATOM      3  C   UNL     1     -53.423 -41.081 -76.777  0.00  0.00    +0.000 A 
ATOM      4  C   UNL     1     -52.689 -39.911 -77.045  0.00  0.00    +0.000 A 
ATOM      5 BR   UNL     1     -53.418 -38.519 -78.108  0.00  0.00    +0.000 Br
ATOM      6  C   UNL     1     -51.385 -39.744 -76.556  0.00  0.00    +0.000 A 
ATOM      7  C   UNL     1     -50.789 -40.768 -75.811  0.00  0.00    +0.000 A 
ATOM      8  C   UNL     1     -51.497 -41.938 -75.534  0.00  0.00    +0.000 A 
ATOM      9 CL   UNL     1     -50.648 -43.169 -74.670  0.00  0.00    +0.000 Cl
ATOM     10  C   UNL     1     -52.813 -42.078 -75.999  0.00  0.00    +0.000 A 
ATOM     11  C   UNL     1     -53.667 -43.240 -75.684  0.00  0.00    +0.000 A 
ATOM     12  O   UNL     1     -53.547 -43.863 -74.637  0.00  0.00    +0.000 OA
ATOM     13  C   UNL     1     -54.754 -43.597 -76.654  0.00  0.00    +0.000 A 
ATOM     14  H   UNL     1     -55.071 -40.646 -77.940  0.00  0.00    +0.000 HD
ENDROOT
BRANCH   1  15
ATOM     15  S   UNL     1     -56.627 -42.653 -78.519  0.00  0.00    +0.000 S 
ATOM     16  O   UNL     1     -56.200 -41.653 -79.559  0.00  0.00    +0.000 OA
BRANCH  15  17
ATOM     17  C   UNL     1     -58.218 -42.091 -77.846  0.00  0.00    +0.000 C 
BRANCH  17  21
ATOM     18  C   UNL     1     -59.004 -41.541 -72.816  0.00  0.00    +0.000 C 
ATOM     19  C   UNL     1     -58.667 -41.518 -74.251  0.00  0.00    +0.000 A 
ATOM     20  C   UNL     1     -58.862 -42.380 -75.304  0.00  0.00    +0.000 A 
ATOM     21  C   UNL     1     -58.368 -41.683 -76.430  0.00  0.00    +0.000 A 
ATOM     22  N   UNL     1     -57.843 -40.502 -76.060  0.00  0.00    +0.000 NA
ATOM     23  O   UNL     1     -58.033 -40.404 -74.697  0.00  0.00    +0.000 OA
ENDBRANCH  17  21
ENDBRANCH  15  17
ENDBRANCH   1  15
BRANCH  13  24
ATOM     24  C   UNL     1     -54.860 -45.059 -76.924  0.00  0.00    +0.000 C 
ATOM     25  O   UNL     1     -54.446 -45.526 -77.971  0.00  0.00    +0.000 OA
BRANCH  24  26
ATOM     26  C   UNL     1     -55.429 -45.935 -75.884  0.00  0.00    +0.000 C 
ATOM     27  C   UNL     1     -54.646 -47.135 -75.415  0.00  0.00    +0.000 C 
ATOM     28  C   UNL     1     -55.901 -47.333 -76.209  0.00  0.00    +0.000 C 
ENDBRANCH  24  26
ENDBRANCH  13  24
TORSDOF 5
ENDMDL
MODEL 5
REMARK VINA RESULT:    -6.595     12.129     14.027
REMARK INTER + INTRA:          -9.433
REMARK INTER:                  -8.177
REMARK INTRA:                  -1.256
REMARK UNBOUND:                -0.910
REMARK  Name = 
REMARK  6 active torsions:
REMARK  status: ('A' for Active; 'I' for Inactive)
REMARK    1  A    between atoms: C_1  and  C_2
REMARK    2  A    between atoms: C_4  and  C_5
REMARK    3  A    between atoms: C_5  and  S_6
REMARK    4  A    between atoms: S_6  and  C_8
REMARK    5  A    between atoms: C_20  and  C_21
REMARK    6  A    between atoms: C_21  and  C_23
REMARK                            x       y       z     vdW  Elec       q    Type
REMARK                         _______ _______ _______ _____ _____    ______ ____
ROOT
ATOM      1  C   UNL     1     -56.244 -41.891 -77.476  0.00  0.00    +0.000 A 
ATOM      2  N   UNL     1     -55.316 -40.855 -77.253  0.00  0.00    +0.000 N 
ATOM      3  C   UNL     1     -54.002 -41.147 -76.793  0.00  0.00    +0.000 A 
ATOM      4  C   UNL     1     -52.927 -40.247 -76.919  0.00  0.00    +0.000 A 
ATOM      5 BR   UNL     1     -53.116 -38.626 -77.885  0.00  0.00    +0.000 Br
ATOM      6  C   UNL     1     -51.676 -40.529 -76.354  0.00  0.00    +0.000 A 
ATOM      7  C   UNL     1     -51.478 -41.738 -75.676  0.00  0.00    +0.000 A 
ATOM      8  C   UNL     1     -52.528 -42.646 -75.541  0.00  0.00    +0.000 A 
ATOM      9 CL   UNL     1     -52.163 -44.138 -74.752  0.00  0.00    +0.000 Cl
ATOM     10  C   UNL     1     -53.786 -42.336 -76.080  0.00  0.00    +0.000 A 
ATOM     11  C   UNL     1     -54.976 -43.194 -75.913  0.00  0.00    +0.000 A 
ATOM     12  O   UNL     1     -55.130 -43.897 -74.922  0.00  0.00    +0.000 OA
ATOM     13  C   UNL     1     -56.045 -43.125 -76.963  0.00  0.00    +0.000 A 
ATOM     14  H   UNL     1     -55.347 -40.139 -77.991  0.00  0.00    +0.000 HD
ENDROOT
BRANCH   1  15
ATOM     15  S   UNL     1     -57.396 -41.515 -78.824  0.00  0.00    +0.000 S 
ATOM     16  O   UNL     1     -58.547 -42.457 -78.598  0.00  0.00    +0.000 OA
BRANCH  15  17
ATOM     17  C   UNL     1     -56.635 -41.958 -80.413  0.00  0.00    +0.000 C 
BRANCH  17  21
ATOM     18  C   UNL     1     -51.666 -42.737 -81.373  0.00  0.00    +0.000 C 
ATOM     19  C   UNL     1     -53.049 -42.305 -81.097  0.00  0.00    +0.000 A 
ATOM     20  C   UNL     1     -54.259 -42.948 -80.988  0.00  0.00    +0.000 A 
ATOM     21  C   UNL     1     -55.167 -41.934 -80.612  0.00  0.00    +0.000 A 
ATOM     22  N   UNL     1     -54.550 -40.740 -80.568  0.00  0.00    +0.000 NA
ATOM     23  O   UNL     1     -53.225 -40.979 -80.870  0.00  0.00    +0.000 OA
ENDBRANCH  17  21
ENDBRANCH  15  17
ENDBRANCH   1  15
BRANCH  13  24
ATOM     24  C   UNL     1     -56.572 -44.459 -77.369  0.00  0.00    +0.000 C 
ATOM     25  O   UNL     1     -57.672 -44.830 -76.997  0.00  0.00    +0.000 OA
BRANCH  24  26
ATOM     26  C   UNL     1     -55.761 -45.301 -78.268  0.00  0.00    +0.000 C 
ATOM     27  C   UNL     1     -56.129 -46.750 -78.460  0.00  0.00    +0.000 C 
ATOM     28  C   UNL     1     -54.872 -46.394 -77.726  0.00  0.00    +0.000 C 
ENDBRANCH  24  26
ENDBRANCH  13  24
TORSDOF 5
ENDMDL
MODEL 6
REMARK VINA RESULT:    -6.530     11.709     13.904
REMARK INTER + INTRA:          -9.349
REMARK INTER:                  -8.164
REMARK INTRA:                  -1.185
REMARK UNBOUND:                -0.910
REMARK  Name = 
REMARK  6 active torsions:
REMARK  status: ('A' for Active; 'I' for Inactive)
REMARK    1  A    between atoms: C_1  and  C_2
REMARK    2  A    between atoms: C_4  and  C_5
REMARK    3  A    between atoms: C_5  and  S_6
REMARK    4  A    between atoms: S_6  and  C_8
REMARK    5  A    between atoms: C_20  and  C_21
REMARK    6  A    between atoms: C_21  and  C_23
REMARK                            x       y       z     vdW  Elec       q    Type
REMARK                         _______ _______ _______ _____ _____    ______ ____
ROOT
ATOM      1  C   UNL     1     -55.225 -43.103 -77.816  0.00  0.00    +0.000 A 
ATOM      2  N   UNL     1     -55.843 -43.955 -78.751  0.00  0.00    +0.000 N 
ATOM      3  C   UNL     1     -56.299 -45.245 -78.365  0.00  0.00    +0.000 A 
ATOM      4  C   UNL     1     -57.247 -45.978 -79.103  0.00  0.00    +0.000 A 
ATOM      5 BR   UNL     1     -58.132 -45.211 -80.595  0.00  0.00    +0.000 Br
ATOM      6  C   UNL     1     -57.586 -47.291 -78.747  0.00  0.00    +0.000 A 
ATOM      7  C   UNL     1     -56.995 -47.878 -77.622  0.00  0.00    +0.000 A 
ATOM      8  C   UNL     1     -56.054 -47.171 -76.874  0.00  0.00    +0.000 A 
ATOM      9 CL   UNL     1     -55.438 -47.956 -75.465  0.00  0.00    +0.000 Cl
ATOM     10  C   UNL     1     -55.696 -45.870 -77.261  0.00  0.00    +0.000 A 
ATOM     11  C   UNL     1     -54.651 -45.079 -76.584  0.00  0.00    +0.000 A 
ATOM     12  O   UNL     1     -53.691 -45.610 -76.040  0.00  0.00    +0.000 OA
ATOM     13  C   UNL     1     -54.752 -43.583 -76.644  0.00  0.00    +0.000 A 
ATOM     14  H   UNL     1     -56.499 -43.451 -79.364  0.00  0.00    +0.000 HD
ENDROOT
BRANCH   1  15
ATOM     15  S   UNL     1     -55.548 -41.351 -78.149  0.00  0.00    +0.000 S 
ATOM     16  O   UNL     1     -56.540 -41.368 -79.280  0.00  0.00    +0.000 OA
BRANCH  15  17
ATOM     17  C   UNL     1     -54.033 -40.562 -78.768  0.00  0.00    +0.000 C 
BRANCH  17  21
ATOM     18  C   UNL     1     -50.129 -39.810 -75.541  0.00  0.00    +0.000 C 
ATOM     19  C   UNL     1     -51.157 -40.210 -76.519  0.00  0.00    +0.000 A 
ATOM     20  C   UNL     1     -52.367 -39.692 -76.917  0.00  0.00    +0.000 A 
ATOM     21  C   UNL     1     -52.784 -40.535 -77.972  0.00  0.00    +0.000 A 
ATOM     22  N   UNL     1     -51.908 -41.540 -78.147  0.00  0.00    +0.000 NA
ATOM     23  O   UNL     1     -50.892 -41.331 -77.237  0.00  0.00    +0.000 OA
ENDBRANCH  17  21
ENDBRANCH  15  17
ENDBRANCH   1  15
BRANCH  13  24
ATOM     24  C   UNL     1     -54.475 -42.911 -75.343  0.00  0.00    +0.000 C 
ATOM     25  O   UNL     1     -53.363 -42.480 -75.093  0.00  0.00    +0.000 OA
BRANCH  24  26
ATOM     26  C   UNL     1     -55.582 -42.734 -74.384  0.00  0.00    +0.000 C 
ATOM     27  C   UNL     1     -57.001 -42.956 -74.841  0.00  0.00    +0.000 C 
ATOM     28  C   UNL     1     -56.540 -41.572 -74.500  0.00  0.00    +0.000 C 
ENDBRANCH  24  26
ENDBRANCH  13  24
TORSDOF 5
ENDMDL
MODEL 7
REMARK VINA RESULT:    -6.384     11.143     15.252
REMARK INTER + INTRA:          -9.161
REMARK INTER:                  -8.121
REMARK INTRA:                  -1.039
REMARK UNBOUND:                -0.910
REMARK  Name = 
REMARK  6 active torsions:
REMARK  status: ('A' for Active; 'I' for Inactive)
REMARK    1  A    between atoms: C_1  and  C_2
REMARK    2  A    between atoms: C_4  and  C_5
REMARK    3  A    between atoms: C_5  and  S_6
REMARK    4  A    between atoms: S_6  and  C_8
REMARK    5  A    between atoms: C_20  and  C_21
REMARK    6  A    between atoms: C_21  and  C_23
REMARK                            x       y       z     vdW  Elec       q    Type
REMARK                         _______ _______ _______ _____ _____    ______ ____
ROOT
ATOM      1  C   UNL     1     -55.554 -41.643 -79.180  0.00  0.00    +0.000 A 
ATOM      2  N   UNL     1     -55.448 -40.915 -80.381  0.00  0.00    +0.000 N 
ATOM      3  C   UNL     1     -54.441 -41.233 -81.332  0.00  0.00    +0.000 A 
ATOM      4  C   UNL     1     -54.507 -40.838 -82.682  0.00  0.00    +0.000 A 
ATOM      5 BR   UNL     1     -56.055 -39.993 -83.380  0.00  0.00    +0.000 Br
ATOM      6  C   UNL     1     -53.441 -41.076 -83.560  0.00  0.00    +0.000 A 
ATOM      7  C   UNL     1     -52.300 -41.744 -83.099  0.00  0.00    +0.000 A 
ATOM      8  C   UNL     1     -52.212 -42.147 -81.767  0.00  0.00    +0.000 A 
ATOM      9 CL   UNL     1     -50.795 -43.025 -81.316  0.00  0.00    +0.000 Cl
ATOM     10  C   UNL     1     -53.271 -41.870 -80.889  0.00  0.00    +0.000 A 
ATOM     11  C   UNL     1     -53.233 -42.181 -79.447  0.00  0.00    +0.000 A 
ATOM     12  O   UNL     1     -52.184 -42.184 -78.815  0.00  0.00    +0.000 OA
ATOM     13  C   UNL     1     -54.537 -42.418 -78.744  0.00  0.00    +0.000 A 
ATOM     14  H   UNL     1     -56.368 -40.721 -80.801  0.00  0.00    +0.000 HD
ENDROOT
BRANCH   1  15
ATOM     15  S   UNL     1     -57.264 -41.770 -78.591  0.00  0.00    +0.000 S 
ATOM     16  O   UNL     1     -58.088 -41.249 -79.736  0.00  0.00    +0.000 OA
BRANCH  15  17
ATOM     17  C   UNL     1     -57.507 -40.641 -77.188  0.00  0.00    +0.000 C 
BRANCH  17  21
ATOM     18  C   UNL     1     -58.303 -41.486 -72.201  0.00  0.00    +0.000 C 
ATOM     19  C   UNL     1     -58.121 -41.449 -73.664  0.00  0.00    +0.000 A 
ATOM     20  C   UNL     1     -57.861 -40.458 -74.581  0.00  0.00    +0.000 A 
ATOM     21  C   UNL     1     -57.717 -41.140 -75.809  0.00  0.00    +0.000 A 
ATOM     22  N   UNL     1     -57.949 -42.455 -75.648  0.00  0.00    +0.000 NA
ATOM     23  O   UNL     1     -58.199 -42.642 -74.305  0.00  0.00    +0.000 OA
ENDBRANCH  17  21
ENDBRANCH  15  17
ENDBRANCH   1  15
BRANCH  13  24
ATOM     24  C   UNL     1     -54.513 -43.583 -77.814  0.00  0.00    +0.000 C 
ATOM     25  O   UNL     1     -54.514 -44.722 -78.248  0.00  0.00    +0.000 OA
BRANCH  24  26
ATOM     26  C   UNL     1     -54.440 -43.333 -76.362  0.00  0.00    +0.000 C 
ATOM     27  C   UNL     1     -54.068 -41.960 -75.864  0.00  0.00    +0.000 C 
ATOM     28  C   UNL     1     -53.117 -43.101 -75.673  0.00  0.00    +0.000 C 
ENDBRANCH  24  26
ENDBRANCH  13  24
TORSDOF 5
ENDMDL
MODEL 8
REMARK VINA RESULT:    -6.262     13.119     16.102
REMARK INTER + INTRA:          -9.003
REMARK INTER:                  -8.397
REMARK INTRA:                  -0.606
REMARK UNBOUND:                -0.910
REMARK  Name = 
REMARK  6 active torsions:
REMARK  status: ('A' for Active; 'I' for Inactive)
REMARK    1  A    between atoms: C_1  and  C_2
REMARK    2  A    between atoms: C_4  and  C_5
REMARK    3  A    between atoms: C_5  and  S_6
REMARK    4  A    between atoms: S_6  and  C_8
REMARK    5  A    between atoms: C_20  and  C_21
REMARK    6  A    between atoms: C_21  and  C_23
REMARK                            x       y       z     vdW  Elec       q    Type
REMARK                         _______ _______ _______ _____ _____    ______ ____
ROOT
ATOM      1  C   UNL     1     -54.314 -41.571 -78.858  0.00  0.00    +0.000 A 
ATOM      2  N   UNL     1     -55.592 -41.974 -79.291  0.00  0.00    +0.000 N 
ATOM      3  C   UNL     1     -56.759 -41.538 -78.605  0.00  0.00    +0.000 A 
ATOM      4  C   UNL     1     -58.043 -41.564 -79.180  0.00  0.00    +0.000 A 
ATOM      5 BR   UNL     1     -58.290 -42.024 -81.004  0.00  0.00    +0.000 Br
ATOM      6  C   UNL     1     -59.180 -41.229 -78.432  0.00  0.00    +0.000 A 
ATOM      7  C   UNL     1     -59.039 -40.834 -77.096  0.00  0.00    +0.000 A 
ATOM      8  C   UNL     1     -57.776 -40.799 -76.505  0.00  0.00    +0.000 A 
ATOM      9 CL   UNL     1     -57.701 -40.229 -74.876  0.00  0.00    +0.000 Cl
ATOM     10  C   UNL     1     -56.649 -41.171 -77.254  0.00  0.00    +0.000 A 
ATOM     11  C   UNL     1     -55.288 -41.246 -76.691  0.00  0.00    +0.000 A 
ATOM     12  O   UNL     1     -55.091 -41.522 -75.514  0.00  0.00    +0.000 OA
ATOM     13  C   UNL     1     -54.129 -41.053 -77.624  0.00  0.00    +0.000 A 
ATOM     14  H   UNL     1     -55.682 -41.951 -80.316  0.00  0.00    +0.000 HD
ENDROOT
BRANCH   1  15
ATOM     15  S   UNL     1     -53.135 -41.409 -80.225  0.00  0.00    +0.000 S 
ATOM     16  O   UNL     1     -53.800 -40.451 -81.175  0.00  0.00    +0.000 OA
BRANCH  15  17
ATOM     17  C   UNL     1     -52.978 -43.003 -81.083  0.00  0.00    +0.000 C 
BRANCH  17  21
ATOM     18  C   UNL     1     -49.696 -42.974 -85.013  0.00  0.00    +0.000 C 
ATOM     19  C   UNL     1     -50.735 -43.146 -83.980  0.00  0.00    +0.000 A 
ATOM     20  C   UNL     1     -50.984 -42.575 -82.755  0.00  0.00    +0.000 A 
ATOM     21  C   UNL     1     -52.210 -43.142 -82.341  0.00  0.00    +0.000 A 
ATOM     22  N   UNL     1     -52.633 -44.052 -83.236  0.00  0.00    +0.000 NA
ATOM     23  O   UNL     1     -51.709 -44.049 -84.259  0.00  0.00    +0.000 OA
ENDBRANCH  17  21
ENDBRANCH  15  17
ENDBRANCH   1  15
BRANCH  13  24
ATOM     24  C   UNL     1     -53.057 -40.175 -77.074  0.00  0.00    +0.000 C 
ATOM     25  O   UNL     1     -53.102 -38.968 -77.235  0.00  0.00    +0.000 OA
BRANCH  24  26
ATOM     26  C   UNL     1     -51.967 -40.788 -76.291  0.00  0.00    +0.000 C 
ATOM     27  C   UNL     1     -50.729 -39.984 -75.989  0.00  0.00    +0.000 C 
ATOM     28  C   UNL     1     -50.647 -41.145 -76.933  0.00  0.00    +0.000 C 
ENDBRANCH  24  26
ENDBRANCH  13  24
TORSDOF 5
ENDMDL
MODEL 9
REMARK VINA RESULT:    -6.110      3.923      5.686
REMARK INTER + INTRA:          -8.806
REMARK INTER:                  -8.103
REMARK INTRA:                  -0.702
REMARK UNBOUND:                -0.910
REMARK  Name = 
REMARK  6 active torsions:
REMARK  status: ('A' for Active; 'I' for Inactive)
REMARK    1  A    between atoms: C_1  and  C_2
REMARK    2  A    between atoms: C_4  and  C_5
REMARK    3  A    between atoms: C_5  and  S_6
REMARK    4  A    between atoms: S_6  and  C_8
REMARK    5  A    between atoms: C_20  and  C_21
REMARK    6  A    between atoms: C_21  and  C_23
REMARK                            x       y       z     vdW  Elec       q    Type
REMARK                         _______ _______ _______ _____ _____    ______ ____
ROOT
ATOM      1  C   UNL     1     -56.755 -41.042 -61.727  0.00  0.00    +0.000 A 
ATOM      2  N   UNL     1     -56.685 -41.695 -60.481  0.00  0.00    +0.000 N 
ATOM      3  C   UNL     1     -55.688 -42.678 -60.235  0.00  0.00    +0.000 A 
ATOM      4  C   UNL     1     -55.308 -43.079 -58.940  0.00  0.00    +0.000 A 
ATOM      5 BR   UNL     1     -55.983 -42.194 -57.404  0.00  0.00    +0.000 Br
ATOM      6  C   UNL     1     -54.401 -44.130 -58.743  0.00  0.00    +0.000 A 
ATOM      7  C   UNL     1     -53.840 -44.777 -59.850  0.00  0.00    +0.000 A 
ATOM      8  C   UNL     1     -54.199 -44.395 -61.143  0.00  0.00    +0.000 A 
ATOM      9 CL   UNL     1     -53.396 -45.206 -62.439  0.00  0.00    +0.000 Cl
ATOM     10  C   UNL     1     -55.135 -43.367 -61.326  0.00  0.00    +0.000 A 
ATOM     11  C   UNL     1     -55.640 -42.954 -62.650  0.00  0.00    +0.000 A 
ATOM     12  O   UNL     1     -55.731 -43.744 -63.581  0.00  0.00    +0.000 OA
ATOM     13  C   UNL     1     -56.120 -41.542 -62.810  0.00  0.00    +0.000 A 
ATOM     14  H   UNL     1     -56.832 -41.048 -59.694  0.00  0.00    +0.000 HD
ENDROOT
BRANCH   1  15
ATOM     15  S   UNL     1     -57.358 -39.339 -61.588  0.00  0.00    +0.000 S 
ATOM     16  O   UNL     1     -58.568 -39.301 -62.481  0.00  0.00    +0.000 OA
BRANCH  15  17
ATOM     17  C   UNL     1     -56.128 -38.201 -62.290  0.00  0.00    +0.000 C 
BRANCH  17  21
ATOM     18  C   UNL     1     -57.996 -33.461 -62.808  0.00  0.00    +0.000 C 
ATOM     19  C   UNL     1     -57.270 -34.742 -62.715  0.00  0.00    +0.000 A 
ATOM     20  C   UNL     1     -57.600 -36.013 -62.307  0.00  0.00    +0.000 A 
ATOM     21  C   UNL     1     -56.446 -36.782 -62.573  0.00  0.00    +0.000 A 
ATOM     22  N   UNL     1     -55.458 -36.002 -63.046  0.00  0.00    +0.000 NA
ATOM     23  O   UNL     1     -55.980 -34.728 -63.135  0.00  0.00    +0.000 OA
ENDBRANCH  17  21
ENDBRANCH  15  17
ENDBRANCH   1  15
BRANCH  13  24
ATOM     24  C   UNL     1     -55.659 -40.891 -64.070  0.00  0.00    +0.000 C 
ATOM     25  O   UNL     1     -54.478 -40.643 -64.243  0.00  0.00    +0.000 OA
BRANCH  24  26
ATOM     26  C   UNL     1     -56.649 -40.597 -65.123  0.00  0.00    +0.000 C 
ATOM     27  C   UNL     1     -57.876 -41.463 -65.249  0.00  0.00    +0.000 C 
ATOM     28  C   UNL     1     -56.822 -41.511 -66.312  0.00  0.00    +0.000 C 
ENDBRANCH  24  26
ENDBRANCH  13  24
TORSDOF 5
ENDMDL
MODEL 10
REMARK VINA RESULT:    -5.995     11.981     15.073
REMARK INTER + INTRA:          -8.658
REMARK INTER:                  -7.731
REMARK INTRA:                  -0.928
REMARK UNBOUND:                -0.910
REMARK  Name = 
REMARK  6 active torsions:
REMARK  status: ('A' for Active; 'I' for Inactive)
REMARK    1  A    between atoms: C_1  and  C_2
REMARK    2  A    between atoms: C_4  and  C_5
REMARK    3  A    between atoms: C_5  and  S_6
REMARK    4  A    between atoms: S_6  and  C_8
REMARK    5  A    between atoms: C_20  and  C_21
REMARK    6  A    between atoms: C_21  and  C_23
REMARK                            x       y       z     vdW  Elec       q    Type
REMARK                         _______ _______ _______ _____ _____    ______ ____
ROOT
ATOM      1  C   UNL     1     -66.126 -47.900 -55.704  0.00  0.00    +0.000 A 
ATOM      2  N   UNL     1     -66.915 -49.016 -56.042  0.00  0.00    +0.000 N 
ATOM      3  C   UNL     1     -67.042 -50.111 -55.143  0.00  0.00    +0.000 A 
ATOM      4  C   UNL     1     -68.085 -51.053 -55.223  0.00  0.00    +0.000 A 
ATOM      5 BR   UNL     1     -69.519 -50.825 -56.444  0.00  0.00    +0.000 Br
ATOM      6  C   UNL     1     -68.112 -52.178 -54.387  0.00  0.00    +0.000 A 
ATOM      7  C   UNL     1     -67.101 -52.358 -53.436  0.00  0.00    +0.000 A 
ATOM      8  C   UNL     1     -66.058 -51.437 -53.337  0.00  0.00    +0.000 A 
ATOM      9 CL   UNL     1     -64.901 -51.711 -52.085  0.00  0.00    +0.000 Cl
ATOM     10  C   UNL     1     -66.023 -50.334 -54.204  0.00  0.00    +0.000 A 
ATOM     11  C   UNL     1     -64.919 -49.356 -54.231  0.00  0.00    +0.000 A 
ATOM     12  O   UNL     1     -63.771 -49.672 -53.944  0.00  0.00    +0.000 OA
ATOM     13  C   UNL     1     -65.222 -47.965 -54.701  0.00  0.00    +0.000 A 
ATOM     14  H   UNL     1     -67.800 -48.746 -56.493  0.00  0.00    +0.000 HD
ENDROOT
BRANCH   1  15
ATOM     15  S   UNL     1     -66.763 -46.357 -56.410  0.00  0.00    +0.000 S 
ATOM     16  O   UNL     1     -68.254 -46.462 -56.240  0.00  0.00    +0.000 OA
BRANCH  15  17
ATOM     17  C   UNL     1     -66.420 -46.321 -58.194  0.00  0.00    +0.000 C 
BRANCH  17  21
ATOM     18  C   UNL     1     -62.130 -47.185 -60.852  0.00  0.00    +0.000 C 
ATOM     19  C   UNL     1     -63.239 -46.852 -59.939  0.00  0.00    +0.000 A 
ATOM     20  C   UNL     1     -64.609 -46.924 -60.014  0.00  0.00    +0.000 A 
ATOM     21  C   UNL     1     -65.057 -46.529 -58.734  0.00  0.00    +0.000 A 
ATOM     22  N   UNL     1     -64.017 -46.172 -57.960  0.00  0.00    +0.000 NA
ATOM     23  O   UNL     1     -62.883 -46.377 -58.718  0.00  0.00    +0.000 OA
ENDBRANCH  17  21
ENDBRANCH  15  17
ENDBRANCH   1  15
BRANCH  13  24
ATOM     24  C   UNL     1     -64.602 -46.900 -53.862  0.00  0.00    +0.000 C 
ATOM     25  O   UNL     1     -63.771 -46.144 -54.335  0.00  0.00    +0.000 OA
BRANCH  24  26
ATOM     26  C   UNL     1     -65.048 -46.747 -52.464  0.00  0.00    +0.000 C 
ATOM     27  C   UNL     1     -64.221 -45.925 -51.509  0.00  0.00    +0.000 C 
ATOM     28  C   UNL     1     -64.305 -47.410 -51.329  0.00  0.00    +0.000 C 
ENDBRANCH  24  26
ENDBRANCH  13  24
TORSDOF 5
ENDMDL
MODEL 11
REMARK VINA RESULT:    -5.890      3.375      6.245
REMARK INTER + INTRA:          -8.522
REMARK INTER:                  -8.183
REMARK INTRA:                  -0.339
REMARK UNBOUND:                -0.910
REMARK  Name = 
REMARK  6 active torsions:
REMARK  status: ('A' for Active; 'I' for Inactive)
REMARK    1  A    between atoms: C_1  and  C_2
REMARK    2  A    between atoms: C_4  and  C_5
REMARK    3  A    between atoms: C_5  and  S_6
REMARK    4  A    between atoms: S_6  and  C_8
REMARK    5  A    between atoms: C_20  and  C_21
REMARK    6  A    between atoms: C_21  and  C_23
REMARK                            x       y       z     vdW  Elec       q    Type
REMARK                         _______ _______ _______ _____ _____    ______ ____
ROOT
ATOM      1  C   UNL     1     -56.155 -41.802 -64.362  0.00  0.00    +0.000 A 
ATOM      2  N   UNL     1     -56.384 -42.521 -65.551  0.00  0.00    +0.000 N 
ATOM      3  C   UNL     1     -57.573 -42.316 -66.303  0.00  0.00    +0.000 A 
ATOM      4  C   UNL     1     -57.699 -42.683 -67.656  0.00  0.00    +0.000 A 
ATOM      5 BR   UNL     1     -56.209 -43.325 -68.639  0.00  0.00    +0.000 Br
ATOM      6  C   UNL     1     -58.923 -42.564 -68.329  0.00  0.00    +0.000 A 
ATOM      7  C   UNL     1     -60.036 -42.046 -67.656  0.00  0.00    +0.000 A 
ATOM      8  C   UNL     1     -59.935 -41.674 -66.316  0.00  0.00    +0.000 A 
ATOM      9 CL   UNL     1     -61.344 -40.980 -65.598  0.00  0.00    +0.000 Cl
ATOM     10  C   UNL     1     -58.714 -41.831 -65.643  0.00  0.00    +0.000 A 
ATOM     11  C   UNL     1     -58.534 -41.546 -64.207  0.00  0.00    +0.000 A 
ATOM     12  O   UNL     1     -59.450 -41.678 -63.404  0.00  0.00    +0.000 OA
ATOM     13  C   UNL     1     -57.164 -41.161 -63.732  0.00  0.00    +0.000 A 
ATOM     14  H   UNL     1     -55.536 -42.597 -66.130  0.00  0.00    +0.000 HD
ENDROOT
BRANCH   1  15
ATOM     15  S   UNL     1     -54.396 -41.476 -64.074  0.00  0.00    +0.000 S 
ATOM     16  O   UNL     1     -53.818 -41.320 -65.454  0.00  0.00    +0.000 OA
BRANCH  15  17
ATOM     17  C   UNL     1     -53.624 -42.938 -63.322  0.00  0.00    +0.000 C 
BRANCH  17  21
ATOM     18  C   UNL     1     -49.208 -45.249 -64.498  0.00  0.00    +0.000 C 
ATOM     19  C   UNL     1     -50.387 -44.405 -64.230  0.00  0.00    +0.000 A 
ATOM     20  C   UNL     1     -51.671 -44.645 -63.800  0.00  0.00    +0.000 A 
ATOM     21  C   UNL     1     -52.248 -43.363 -63.669  0.00  0.00    +0.000 A 
ATOM     22  N   UNL     1     -51.382 -42.414 -64.067  0.00  0.00    +0.000 NA
ATOM     23  O   UNL     1     -50.220 -43.071 -64.414  0.00  0.00    +0.000 OA
ENDBRANCH  17  21
ENDBRANCH  15  17
ENDBRANCH   1  15
BRANCH  13  24
ATOM     24  C   UNL     1     -57.161 -40.020 -62.773  0.00  0.00    +0.000 C 
ATOM     25  O   UNL     1     -57.027 -38.876 -63.172  0.00  0.00    +0.000 OA
BRANCH  24  26
ATOM     26  C   UNL     1     -57.370 -40.294 -61.339  0.00  0.00    +0.000 C 
ATOM     27  C   UNL     1     -56.556 -39.548 -60.315  0.00  0.00    +0.000 C 
ATOM     28  C   UNL     1     -56.326 -41.014 -60.519  0.00  0.00    +0.000 C 
ENDBRANCH  24  26
ENDBRANCH  13  24
TORSDOF 5
ENDMDL
MODEL 12
REMARK VINA RESULT:    -5.721     12.522     14.322
REMARK INTER + INTRA:          -8.304
REMARK INTER:                  -7.114
REMARK INTRA:                  -1.190
REMARK UNBOUND:                -0.910
REMARK  Name = 
REMARK  6 active torsions:
REMARK  status: ('A' for Active; 'I' for Inactive)
REMARK    1  A    between atoms: C_1  and  C_2
REMARK    2  A    between atoms: C_4  and  C_5
REMARK    3  A    between atoms: C_5  and  S_6
REMARK    4  A    between atoms: S_6  and  C_8
REMARK    5  A    between atoms: C_20  and  C_21
REMARK    6  A    between atoms: C_21  and  C_23
REMARK                            x       y       z     vdW  Elec       q    Type
REMARK                         _______ _______ _______ _____ _____    ______ ____
ROOT
ATOM      1  C   UNL     1     -56.291 -44.469 -78.380  0.00  0.00    +0.000 A 
ATOM      2  N   UNL     1     -55.524 -45.464 -77.743  0.00  0.00    +0.000 N 
ATOM      3  C   UNL     1     -54.584 -45.117 -76.734  0.00  0.00    +0.000 A 
ATOM      4  C   UNL     1     -54.081 -46.044 -75.802  0.00  0.00    +0.000 A 
ATOM      5 BR   UNL     1     -54.766 -47.811 -75.711  0.00  0.00    +0.000 Br
ATOM      6  C   UNL     1     -53.074 -45.687 -74.895  0.00  0.00    +0.000 A 
ATOM      7  C   UNL     1     -52.575 -44.379 -74.893  0.00  0.00    +0.000 A 
ATOM      8  C   UNL     1     -53.060 -43.442 -75.806  0.00  0.00    +0.000 A 
ATOM      9 CL   UNL     1     -52.433 -41.839 -75.675  0.00  0.00    +0.000 Cl
ATOM     10  C   UNL     1     -54.042 -43.822 -76.733  0.00  0.00    +0.000 A 
ATOM     11  C   UNL     1     -54.552 -42.927 -77.790  0.00  0.00    +0.000 A 
ATOM     12  O   UNL     1     -53.854 -42.053 -78.287  0.00  0.00    +0.000 OA
ATOM     13  C   UNL     1     -55.941 -43.166 -78.304  0.00  0.00    +0.000 A 
ATOM     14  H   UNL     1     -56.079 -46.302 -77.522  0.00  0.00    +0.000 HD
ENDROOT
BRANCH   1  15
ATOM     15  S   UNL     1     -57.932 -45.062 -78.870  0.00  0.00    +0.000 S 
ATOM     16  O   UNL     1     -58.569 -45.496 -77.578  0.00  0.00    +0.000 OA
BRANCH  15  17
ATOM     17  C   UNL     1     -57.756 -46.540 -79.912  0.00  0.00    +0.000 C 
BRANCH  17  21
ATOM     18  C   UNL     1     -57.387 -51.310 -78.088  0.00  0.00    +0.000 C 
ATOM     19  C   UNL     1     -57.281 -49.940 -78.624  0.00  0.00    +0.000 A 
ATOM     20  C   UNL     1     -58.185 -48.989 -79.033  0.00  0.00    +0.000 A 
ATOM     21  C   UNL     1     -57.396 -47.860 -79.345  0.00  0.00    +0.000 A 
ATOM     22  N   UNL     1     -56.090 -48.142 -79.199  0.00  0.00    +0.000 NA
ATOM     23  O   UNL     1     -56.024 -49.444 -78.746  0.00  0.00    +0.000 OA
ENDBRANCH  17  21
ENDBRANCH  15  17
ENDBRANCH   1  15
BRANCH  13  24
ATOM     24  C   UNL     1     -56.740 -41.919 -78.474  0.00  0.00    +0.000 C 
ATOM     25  O   UNL     1     -56.766 -41.341 -79.547  0.00  0.00    +0.000 OA
BRANCH  24  26
ATOM     26  C   UNL     1     -57.537 -41.424 -77.335  0.00  0.00    +0.000 C 
ATOM     27  C   UNL     1     -57.849 -39.953 -77.233  0.00  0.00    +0.000 C 
ATOM     28  C   UNL     1     -56.911 -40.583 -76.249  0.00  0.00    +0.000 C 
ENDBRANCH  24  26
ENDBRANCH  13  24
TORSDOF 5
ENDMDL
MODEL 13
REMARK VINA RESULT:    -5.676     12.666     14.252
REMARK INTER + INTRA:          -8.245
REMARK INTER:                  -7.460
REMARK INTRA:                  -0.785
REMARK UNBOUND:                -0.910
REMARK  Name = 
REMARK  6 active torsions:
REMARK  status: ('A' for Active; 'I' for Inactive)
REMARK    1  A    between atoms: C_1  and  C_2
REMARK    2  A    between atoms: C_4  and  C_5
REMARK    3  A    between atoms: C_5  and  S_6
REMARK    4  A    between atoms: S_6  and  C_8
REMARK    5  A    between atoms: C_20  and  C_21
REMARK    6  A    between atoms: C_21  and  C_23
REMARK                            x       y       z     vdW  Elec       q    Type
REMARK                         _______ _______ _______ _____ _____    ______ ____
ROOT
ATOM      1  C   UNL     1     -56.314 -43.725 -78.407  0.00  0.00    +0.000 A 
ATOM      2  N   UNL     1     -55.609 -42.515 -78.552  0.00  0.00    +0.000 N 
ATOM      3  C   UNL     1     -54.367 -42.317 -77.887  0.00  0.00    +0.000 A 
ATOM      4  C   UNL     1     -53.437 -41.335 -78.276  0.00  0.00    +0.000 A 
ATOM      5 BR   UNL     1     -53.697 -40.307 -79.849  0.00  0.00    +0.000 Br
ATOM      6  C   UNL     1     -52.275 -41.100 -77.526  0.00  0.00    +0.000 A 
ATOM      7  C   UNL     1     -52.019 -41.871 -76.387  0.00  0.00    +0.000 A 
ATOM      8  C   UNL     1     -52.926 -42.851 -75.984  0.00  0.00    +0.000 A 
ATOM      9 CL   UNL     1     -52.482 -43.796 -74.608  0.00  0.00    +0.000 Cl
ATOM     10  C   UNL     1     -54.102 -43.052 -76.722  0.00  0.00    +0.000 A 
ATOM     11  C   UNL     1     -55.157 -44.004 -76.325  0.00  0.00    +0.000 A 
ATOM     12  O   UNL     1     -55.375 -44.274 -75.150  0.00  0.00    +0.000 OA
ATOM     13  C   UNL     1     -56.024 -44.583 -77.404  0.00  0.00    +0.000 A 
ATOM     14  H   UNL     1     -55.618 -42.173 -79.523  0.00  0.00    +0.000 HD
ENDROOT
BRANCH   1  15
ATOM     15  S   UNL     1     -57.255 -44.165 -79.892  0.00  0.00    +0.000 S 
ATOM     16  O   UNL     1     -56.259 -44.882 -80.761  0.00  0.00    +0.000 OA
BRANCH  15  17
ATOM     17  C   UNL     1     -57.751 -42.652 -80.766  0.00  0.00    +0.000 C 
BRANCH  17  21
ATOM     18  C   UNL     1     -61.532 -39.402 -79.602  0.00  0.00    +0.000 C 
ATOM     19  C   UNL     1     -60.413 -40.353 -79.727  0.00  0.00    +0.000 A 
ATOM     20  C   UNL     1     -59.822 -41.020 -80.775  0.00  0.00    +0.000 A 
ATOM     21  C   UNL     1     -58.730 -41.701 -80.193  0.00  0.00    +0.000 A 
ATOM     22  N   UNL     1     -58.711 -41.510 -78.862  0.00  0.00    +0.000 NA
ATOM     23  O   UNL     1     -59.764 -40.665 -78.577  0.00  0.00    +0.000 OA
ENDBRANCH  17  21
ENDBRANCH  15  17
ENDBRANCH   1  15
BRANCH  13  24
ATOM     24  C   UNL     1     -56.263 -46.048 -77.260  0.00  0.00    +0.000 C 
ATOM     25  O   UNL     1     -57.387 -46.505 -77.365  0.00  0.00    +0.000 OA
BRANCH  24  26
ATOM     26  C   UNL     1     -55.108 -46.938 -77.034  0.00  0.00    +0.000 C 
ATOM     27  C   UNL     1     -55.333 -48.421 -76.891  0.00  0.00    +0.000 C 
ATOM     28  C   UNL     1     -54.893 -47.620 -75.704  0.00  0.00    +0.000 C 
ENDBRANCH  24  26
ENDBRANCH  13  24
TORSDOF 5
ENDMDL
MODEL 14
REMARK VINA RESULT:    -5.621     12.178     14.242
REMARK INTER + INTRA:          -8.174
REMARK INTER:                  -7.273
REMARK INTRA:                  -0.901
REMARK UNBOUND:                -0.910
REMARK  Name = 
REMARK  6 active torsions:
REMARK  status: ('A' for Active; 'I' for Inactive)
REMARK    1  A    between atoms: C_1  and  C_2
REMARK    2  A    between atoms: C_4  and  C_5
REMARK    3  A    between atoms: C_5  and  S_6
REMARK    4  A    between atoms: S_6  and  C_8
REMARK    5  A    between atoms: C_20  and  C_21
REMARK    6  A    between atoms: C_21  and  C_23
REMARK                            x       y       z     vdW  Elec       q    Type
REMARK                         _______ _______ _______ _____ _____    ______ ____
ROOT
ATOM      1  C   UNL     1     -56.629 -45.095 -77.607  0.00  0.00    +0.000 A 
ATOM      2  N   UNL     1     -56.325 -43.799 -77.146  0.00  0.00    +0.000 N 
ATOM      3  C   UNL     1     -55.065 -43.521 -76.548  0.00  0.00    +0.000 A 
ATOM      4  C   UNL     1     -54.544 -42.219 -76.426  0.00  0.00    +0.000 A 
ATOM      5 BR   UNL     1     -55.418 -40.736 -77.223  0.00  0.00    +0.000 Br
ATOM      6  C   UNL     1     -53.350 -41.978 -75.732  0.00  0.00    +0.000 A 
ATOM      7  C   UNL     1     -52.646 -43.050 -75.172  0.00  0.00    +0.000 A 
ATOM      8  C   UNL     1     -53.142 -44.350 -75.282  0.00  0.00    +0.000 A 
ATOM      9 CL   UNL     1     -52.163 -45.609 -74.621  0.00  0.00    +0.000 Cl
ATOM     10  C   UNL     1     -54.356 -44.573 -75.948  0.00  0.00    +0.000 A 
ATOM     11  C   UNL     1     -55.001 -45.898 -76.040  0.00  0.00    +0.000 A 
ATOM     12  O   UNL     1     -54.867 -46.742 -75.163  0.00  0.00    +0.000 OA
ATOM     13  C   UNL     1     -55.901 -46.162 -77.211  0.00  0.00    +0.000 A 
ATOM     14  H   UNL     1     -56.644 -43.069 -77.798  0.00  0.00    +0.000 HD
ENDROOT
BRANCH   1  15
ATOM     15  S   UNL     1     -57.728 -45.082 -79.048  0.00  0.00    +0.000 S 
ATOM     16  O   UNL     1     -58.367 -46.444 -79.037  0.00  0.00    +0.000 OA
BRANCH  15  17
ATOM     17  C   UNL     1     -56.736 -44.958 -80.565  0.00  0.00    +0.000 C 
BRANCH  17  21
ATOM     18  C   UNL     1     -52.260 -42.608 -81.375  0.00  0.00    +0.000 C 
ATOM     19  C   UNL     1     -53.621 -43.094 -81.080  0.00  0.00    +0.000 A 
ATOM     20  C   UNL     1     -54.275 -44.293 -81.238  0.00  0.00    +0.000 A 
ATOM     21  C   UNL     1     -55.543 -44.086 -80.651  0.00  0.00    +0.000 A 
ATOM     22  N   UNL     1     -55.666 -42.814 -80.231  0.00  0.00    +0.000 NA
ATOM     23  O   UNL     1     -54.461 -42.200 -80.500  0.00  0.00    +0.000 OA
ENDBRANCH  17  21
ENDBRANCH  15  17
ENDBRANCH   1  15
BRANCH  13  24
ATOM     24  C   UNL     1     -55.699 -47.503 -77.830  0.00  0.00    +0.000 C 
ATOM     25  O   UNL     1     -55.142 -47.610 -78.909  0.00  0.00    +0.000 OA
BRANCH  24  26
ATOM     26  C   UNL     1     -56.144 -48.701 -77.093  0.00  0.00    +0.000 C 
ATOM     27  C   UNL     1     -56.259 -50.017 -77.818  0.00  0.00    +0.000 C 
ATOM     28  C   UNL     1     -57.498 -49.319 -77.347  0.00  0.00    +0.000 C 
ENDBRANCH  24  26
ENDBRANCH  13  24
TORSDOF 5
ENDMDL
MODEL 15
REMARK VINA RESULT:    -5.517     12.403     15.860
REMARK INTER + INTRA:          -8.040
REMARK INTER:                  -6.927
REMARK INTRA:                  -1.113
REMARK UNBOUND:                -0.910
REMARK  Name = 
REMARK  6 active torsions:
REMARK  status: ('A' for Active; 'I' for Inactive)
REMARK    1  A    between atoms: C_1  and  C_2
REMARK    2  A    between atoms: C_4  and  C_5
REMARK    3  A    between atoms: C_5  and  S_6
REMARK    4  A    between atoms: S_6  and  C_8
REMARK    5  A    between atoms: C_20  and  C_21
REMARK    6  A    between atoms: C_21  and  C_23
REMARK                            x       y       z     vdW  Elec       q    Type
REMARK                         _______ _______ _______ _____ _____    ______ ____
ROOT
ATOM      1  C   UNL     1     -65.380 -47.735 -55.155  0.00  0.00    +0.000 A 
ATOM      2  N   UNL     1     -64.431 -47.202 -56.050  0.00  0.00    +0.000 N 
ATOM      3  C   UNL     1     -64.838 -46.667 -57.303  0.00  0.00    +0.000 A 
ATOM      4  C   UNL     1     -64.040 -45.788 -58.058  0.00  0.00    +0.000 A 
ATOM      5 BR   UNL     1     -62.413 -45.102 -57.365  0.00  0.00    +0.000 Br
ATOM      6  C   UNL     1     -64.432 -45.372 -59.338  0.00  0.00    +0.000 A 
ATOM      7  C   UNL     1     -65.650 -45.814 -59.868  0.00  0.00    +0.000 A 
ATOM      8  C   UNL     1     -66.459 -46.684 -59.137  0.00  0.00    +0.000 A 
ATOM      9 CL   UNL     1     -67.973 -47.112 -59.847  0.00  0.00    +0.000 Cl
ATOM     10  C   UNL     1     -66.038 -47.122 -57.871  0.00  0.00    +0.000 A 
ATOM     11  C   UNL     1     -66.784 -48.106 -57.063  0.00  0.00    +0.000 A 
ATOM     12  O   UNL     1     -67.465 -48.982 -57.581  0.00  0.00    +0.000 OA
ATOM     13  C   UNL     1     -66.624 -48.057 -55.573  0.00  0.00    +0.000 A 
ATOM     14  H   UNL     1     -63.719 -46.636 -55.569  0.00  0.00    +0.000 HD
ENDROOT
BRANCH   1  15
ATOM     15  S   UNL     1     -64.908 -47.504 -53.421  0.00  0.00    +0.000 S 
ATOM     16  O   UNL     1     -63.784 -46.506 -53.473  0.00  0.00    +0.000 OA
BRANCH  15  17
ATOM     17  C   UNL     1     -64.227 -49.056 -52.766  0.00  0.00    +0.000 C 
BRANCH  17  21
ATOM     18  C   UNL     1     -66.574 -53.420 -51.475  0.00  0.00    +0.000 C 
ATOM     19  C   UNL     1     -66.039 -52.068 -51.718  0.00  0.00    +0.000 A 
ATOM     20  C   UNL     1     -64.962 -51.564 -52.409  0.00  0.00    +0.000 A 
ATOM     21  C   UNL     1     -65.100 -50.162 -52.307  0.00  0.00    +0.000 A 
ATOM     22  N   UNL     1     -66.158 -49.846 -51.540  0.00  0.00    +0.000 NA
ATOM     23  O   UNL     1     -66.742 -51.041 -51.176  0.00  0.00    +0.000 OA
ENDBRANCH  17  21
ENDBRANCH  15  17
ENDBRANCH   1  15
BRANCH  13  24
ATOM     24  C   UNL     1     -67.906 -48.205 -54.827  0.00  0.00    +0.000 C 
ATOM     25  O   UNL     1     -68.706 -47.286 -54.782  0.00  0.00    +0.000 OA
BRANCH  24  26
ATOM     26  C   UNL     1     -68.212 -49.497 -54.186  0.00  0.00    +0.000 C 
ATOM     27  C   UNL     1     -67.691 -50.771 -54.800  0.00  0.00    +0.000 C 
ATOM     28  C   UNL     1     -69.161 -50.483 -54.825  0.00  0.00    +0.000 C 
ENDBRANCH  24  26
ENDBRANCH  13  24
TORSDOF 5
ENDMDL
MODEL 16
REMARK VINA RESULT:    -5.360      9.261     12.285
REMARK INTER + INTRA:          -7.837
REMARK INTER:                  -6.866
REMARK INTRA:                  -0.972
REMARK UNBOUND:                -0.910
REMARK  Name = 
REMARK  6 active torsions:
REMARK  status: ('A' for Active; 'I' for Inactive)
REMARK    1  A    between atoms: C_1  and  C_2
REMARK    2  A    between atoms: C_4  and  C_5
REMARK    3  A    between atoms: C_5  and  S_6
REMARK    4  A    between atoms: S_6  and  C_8
REMARK    5  A    between atoms: C_20  and  C_21
REMARK    6  A    between atoms: C_21  and  C_23
REMARK                            x       y       z     vdW  Elec       q    Type
REMARK                         _______ _______ _______ _____ _____    ______ ____
ROOT
ATOM      1  C   UNL     1     -64.269 -40.601 -70.426  0.00  0.00    +0.000 A 
ATOM      2  N   UNL     1     -65.291 -40.448 -71.383  0.00  0.00    +0.000 N 
ATOM      3  C   UNL     1     -65.750 -41.564 -72.136  0.00  0.00    +0.000 A 
ATOM      4  C   UNL     1     -66.989 -41.583 -72.802  0.00  0.00    +0.000 A 
ATOM      5 BR   UNL     1     -68.236 -40.169 -72.592  0.00  0.00    +0.000 Br
ATOM      6  C   UNL     1     -67.354 -42.659 -73.624  0.00  0.00    +0.000 A 
ATOM      7  C   UNL     1     -66.486 -43.747 -73.766  0.00  0.00    +0.000 A 
ATOM      8  C   UNL     1     -65.253 -43.751 -73.114  0.00  0.00    +0.000 A 
ATOM      9 CL   UNL     1     -64.287 -45.171 -73.296  0.00  0.00    +0.000 Cl
ATOM     10  C   UNL     1     -64.884 -42.653 -72.323  0.00  0.00    +0.000 A 
ATOM     11  C   UNL     1     -63.568 -42.529 -71.666  0.00  0.00    +0.000 A 
ATOM     12  O   UNL     1     -62.559 -43.031 -72.145  0.00  0.00    +0.000 OA
ATOM     13  C   UNL     1     -63.478 -41.697 -70.422  0.00  0.00    +0.000 A 
ATOM     14  H   UNL     1     -66.047 -39.834 -71.050  0.00  0.00    +0.000 HD
ENDROOT
BRANCH   1  15
ATOM     15  S   UNL     1     -64.448 -39.461 -69.028  0.00  0.00    +0.000 S 
ATOM     16  O   UNL     1     -63.118 -38.762 -68.950  0.00  0.00    +0.000 OA
BRANCH  15  17
ATOM     17  C   UNL     1     -64.654 -40.411 -67.493  0.00  0.00    +0.000 C 
BRANCH  17  21
ATOM     18  C   UNL     1     -68.349 -43.948 -67.265  0.00  0.00    +0.000 C 
ATOM     19  C   UNL     1     -67.370 -42.851 -67.152  0.00  0.00    +0.000 A 
ATOM     20  C   UNL     1     -66.237 -42.491 -67.842  0.00  0.00    +0.000 A 
ATOM     21  C   UNL     1     -65.837 -41.269 -67.257  0.00  0.00    +0.000 A 
ATOM     22  N   UNL     1     -66.645 -40.952 -66.230  0.00  0.00    +0.000 NA
ATOM     23  O   UNL     1     -67.602 -41.944 -66.170  0.00  0.00    +0.000 OA
ENDBRANCH  17  21
ENDBRANCH  15  17
ENDBRANCH   1  15
BRANCH  13  24
ATOM     24  C   UNL     1     -62.665 -42.322 -69.340  0.00  0.00    +0.000 C 
ATOM     25  O   UNL     1     -63.023 -43.365 -68.821  0.00  0.00    +0.000 OA
BRANCH  24  26
ATOM     26  C   UNL     1     -61.397 -41.681 -68.943  0.00  0.00    +0.000 C 
ATOM     27  C   UNL     1     -60.395 -42.461 -68.131  0.00  0.00    +0.000 C 
ATOM     28  C   UNL     1     -61.124 -41.312 -67.504  0.00  0.00    +0.000 C 
ENDBRANCH  24  26
ENDBRANCH  13  24
TORSDOF 5
ENDMDL
MODEL 17
REMARK VINA RESULT:    -5.252     10.171     12.692
REMARK INTER + INTRA:          -7.697
REMARK INTER:                  -6.604
REMARK INTRA:                  -1.093
REMARK UNBOUND:                -0.910
REMARK  Name = 
REMARK  6 active torsions:
REMARK  status: ('A' for Active; 'I' for Inactive)
REMARK    1  A    between atoms: C_1  and  C_2
REMARK    2  A    between atoms: C_4  and  C_5
REMARK    3  A    between atoms: C_5  and  S_6
REMARK    4  A    between atoms: S_6  and  C_8
REMARK    5  A    between atoms: C_20  and  C_21
REMARK    6  A    between atoms: C_21  and  C_23
REMARK                            x       y       z     vdW  Elec       q    Type
REMARK                         _______ _______ _______ _____ _____    ______ ____
ROOT
ATOM      1  C   UNL     1     -66.003 -42.910 -70.423  0.00  0.00    +0.000 A 
ATOM      2  N   UNL     1     -66.247 -43.069 -71.801  0.00  0.00    +0.000 N 
ATOM      3  C   UNL     1     -65.180 -43.349 -72.698  0.00  0.00    +0.000 A 
ATOM      4  C   UNL     1     -65.378 -43.895 -73.980  0.00  0.00    +0.000 A 
ATOM      5 BR   UNL     1     -67.094 -44.472 -74.544  0.00  0.00    +0.000 Br
ATOM      6  C   UNL     1     -64.309 -44.052 -74.874  0.00  0.00    +0.000 A 
ATOM      7  C   UNL     1     -63.017 -43.687 -74.479  0.00  0.00    +0.000 A 
ATOM      8  C   UNL     1     -62.796 -43.145 -73.213  0.00  0.00    +0.000 A 
ATOM      9 CL   UNL     1     -61.157 -42.795 -72.797  0.00  0.00    +0.000 Cl
ATOM     10  C   UNL     1     -63.880 -42.959 -72.341  0.00  0.00    +0.000 A 
ATOM     11  C   UNL     1     -63.757 -42.317 -71.018  0.00  0.00    +0.000 A 
ATOM     12  O   UNL     1     -62.915 -41.456 -70.795  0.00  0.00    +0.000 OA
ATOM     13  C   UNL     1     -64.753 -42.690 -69.960  0.00  0.00    +0.000 A 
ATOM     14  H   UNL     1     -67.098 -43.619 -71.985  0.00  0.00    +0.000 HD
ENDROOT
BRANCH   1  15
ATOM     15  S   UNL     1     -67.391 -43.469 -69.401  0.00  0.00    +0.000 S 
ATOM     16  O   UNL     1     -68.359 -44.063 -70.386  0.00  0.00    +0.000 OA
BRANCH  15  17
ATOM     17  C   UNL     1     -68.201 -42.031 -68.641  0.00  0.00    +0.000 C 
BRANCH  17  21
ATOM     18  C   UNL     1     -68.371 -42.329 -63.532  0.00  0.00    +0.000 C 
ATOM     19  C   UNL     1     -68.277 -42.037 -64.975  0.00  0.00    +0.000 A 
ATOM     20  C   UNL     1     -68.332 -42.795 -66.120  0.00  0.00    +0.000 A 
ATOM     21  C   UNL     1     -68.266 -41.854 -67.172  0.00  0.00    +0.000 A 
ATOM     22  N   UNL     1     -68.108 -40.612 -66.684  0.00  0.00    +0.000 NA
ATOM     23  O   UNL     1     -68.117 -40.732 -65.310  0.00  0.00    +0.000 OA
ENDBRANCH  17  21
ENDBRANCH  15  17
ENDBRANCH   1  15
BRANCH  13  24
ATOM     24  C   UNL     1     -64.144 -42.917 -68.618  0.00  0.00    +0.000 C 
ATOM     25  O   UNL     1     -63.409 -43.870 -68.424  0.00  0.00    +0.000 OA
BRANCH  24  26
ATOM     26  C   UNL     1     -64.408 -41.942 -67.543  0.00  0.00    +0.000 C 
ATOM     27  C   UNL     1     -64.706 -40.508 -67.899  0.00  0.00    +0.000 C 
ATOM     28  C   UNL     1     -63.418 -40.850 -67.215  0.00  0.00    +0.000 C 
ENDBRANCH  24  26
ENDBRANCH  13  24
TORSDOF 5
ENDMDL
MODEL 18
REMARK VINA RESULT:    -5.226     10.309     12.707
REMARK INTER + INTRA:          -7.664
REMARK INTER:                  -6.536
REMARK INTRA:                  -1.127
REMARK UNBOUND:                -0.910
REMARK  Name = 
REMARK  6 active torsions:
REMARK  status: ('A' for Active; 'I' for Inactive)
REMARK    1  A    between atoms: C_1  and  C_2
REMARK    2  A    between atoms: C_4  and  C_5
REMARK    3  A    between atoms: C_5  and  S_6
REMARK    4  A    between atoms: S_6  and  C_8
REMARK    5  A    between atoms: C_20  and  C_21
REMARK    6  A    between atoms: C_21  and  C_23
REMARK                            x       y       z     vdW  Elec       q    Type
REMARK                         _______ _______ _______ _____ _____    ______ ____
ROOT
ATOM      1  C   UNL     1     -66.226 -42.731 -69.355  0.00  0.00    +0.000 A 
ATOM      2  N   UNL     1     -65.163 -42.509 -68.459  0.00  0.00    +0.000 N 
ATOM      3  C   UNL     1     -63.847 -42.272 -68.942  0.00  0.00    +0.000 A 
ATOM      4  C   UNL     1     -62.840 -41.670 -68.163  0.00  0.00    +0.000 A 
ATOM      5 BR   UNL     1     -63.224 -40.958 -66.447  0.00  0.00    +0.000 Br
ATOM      6  C   UNL     1     -61.527 -41.555 -68.640  0.00  0.00    +0.000 A 
ATOM      7  C   UNL     1     -61.212 -42.021 -69.921  0.00  0.00    +0.000 A 
ATOM      8  C   UNL     1     -62.193 -42.620 -70.712  0.00  0.00    +0.000 A 
ATOM      9 CL   UNL     1     -61.721 -43.095 -72.303  0.00  0.00    +0.000 Cl
ATOM     10  C   UNL     1     -63.496 -42.761 -70.210  0.00  0.00    +0.000 A 
ATOM     11  C   UNL     1     -64.576 -43.455 -70.937  0.00  0.00    +0.000 A 
ATOM     12  O   UNL     1     -64.345 -44.379 -71.707  0.00  0.00    +0.000 OA
ATOM     13  C   UNL     1     -65.991 -43.052 -70.647  0.00  0.00    +0.000 A 
ATOM     14  H   UNL     1     -65.434 -41.897 -67.677  0.00  0.00    +0.000 HD
ENDROOT
BRANCH   1  15
ATOM     15  S   UNL     1     -67.809 -42.114 -68.725  0.00  0.00    +0.000 S 
ATOM     16  O   UNL     1     -67.437 -41.331 -67.495  0.00  0.00    +0.000 OA
BRANCH  15  17
ATOM     17  C   UNL     1     -68.835 -43.515 -68.187  0.00  0.00    +0.000 C 
BRANCH  17  21
ATOM     18  C   UNL     1     -70.598 -47.388 -71.035  0.00  0.00    +0.000 C 
ATOM     19  C   UNL     1     -70.238 -46.153 -70.313  0.00  0.00    +0.000 A 
ATOM     20  C   UNL     1     -69.368 -45.849 -69.293  0.00  0.00    +0.000 A 
ATOM     21  C   UNL     1     -69.457 -44.446 -69.156  0.00  0.00    +0.000 A 
ATOM     22  N   UNL     1     -70.380 -43.948 -69.998  0.00  0.00    +0.000 NA
ATOM     23  O   UNL     1     -70.863 -45.020 -70.720  0.00  0.00    +0.000 OA
ENDBRANCH  17  21
ENDBRANCH  15  17
ENDBRANCH   1  15
BRANCH  13  24
ATOM     24  C   UNL     1     -66.837 -42.912 -71.867  0.00  0.00    +0.000 C 
ATOM     25  O   UNL     1     -67.695 -43.738 -72.123  0.00  0.00    +0.000 OA
BRANCH  24  26
ATOM     26  C   UNL     1     -66.648 -41.732 -72.732  0.00  0.00    +0.000 C 
ATOM     27  C   UNL     1     -66.152 -40.443 -72.129  0.00  0.00    +0.000 C 
ATOM     28  C   UNL     1     -67.561 -40.534 -72.631  0.00  0.00    +0.000 C 
ENDBRANCH  24  26
ENDBRANCH  13  24
TORSDOF 5
ENDMDL
MODEL 19
REMARK VINA RESULT:    -5.181      8.247     10.171
REMARK INTER + INTRA:          -7.605
REMARK INTER:                  -6.904
REMARK INTRA:                  -0.702
REMARK UNBOUND:                -0.910
REMARK  Name = 
REMARK  6 active torsions:
REMARK  status: ('A' for Active; 'I' for Inactive)
REMARK    1  A    between atoms: C_1  and  C_2
REMARK    2  A    between atoms: C_4  and  C_5
REMARK    3  A    between atoms: C_5  and  S_6
REMARK    4  A    between atoms: S_6  and  C_8
REMARK    5  A    between atoms: C_20  and  C_21
REMARK    6  A    between atoms: C_21  and  C_23
REMARK                            x       y       z     vdW  Elec       q    Type
REMARK                         _______ _______ _______ _____ _____    ______ ____
ROOT
ATOM      1  C   UNL     1     -54.818 -34.764 -61.654  0.00  0.00    +0.000 A 
ATOM      2  N   UNL     1     -56.141 -34.299 -61.782  0.00  0.00    +0.000 N 
ATOM      3  C   UNL     1     -56.464 -32.946 -61.484  0.00  0.00    +0.000 A 
ATOM      4  C   UNL     1     -57.635 -32.317 -61.946  0.00  0.00    +0.000 A 
ATOM      5 BR   UNL     1     -58.798 -33.187 -63.167  0.00  0.00    +0.000 Br
ATOM      6  C   UNL     1     -57.970 -31.018 -61.539  0.00  0.00    +0.000 A 
ATOM      7  C   UNL     1     -57.113 -30.320 -60.679  0.00  0.00    +0.000 A 
ATOM      8  C   UNL     1     -55.946 -30.922 -60.210  0.00  0.00    +0.000 A 
ATOM      9 CL   UNL     1     -54.922 -29.952 -59.213  0.00  0.00    +0.000 Cl
ATOM     10  C   UNL     1     -55.641 -32.236 -60.596  0.00  0.00    +0.000 A 
ATOM     11  C   UNL     1     -54.476 -32.984 -60.085  0.00  0.00    +0.000 A 
ATOM     12  O   UNL     1     -54.023 -32.784 -58.965  0.00  0.00    +0.000 OA
ATOM     13  C   UNL     1     -53.901 -34.067 -60.949  0.00  0.00    +0.000 A 
ATOM     14  H   UNL     1     -56.600 -34.657 -62.631  0.00  0.00    +0.000 HD
ENDROOT
BRANCH   1  15
ATOM     15  S   UNL     1     -54.418 -36.062 -62.854  0.00  0.00    +0.000 S 
ATOM     16  O   UNL     1     -54.961 -35.542 -64.156  0.00  0.00    +0.000 OA
BRANCH  15  17
ATOM     17  C   UNL     1     -55.342 -37.572 -62.444  0.00  0.00    +0.000 C 
BRANCH  17  21
ATOM     18  C   UNL     1     -56.049 -41.732 -65.345  0.00  0.00    +0.000 C 
ATOM     19  C   UNL     1     -55.647 -40.532 -64.588  0.00  0.00    +0.000 A 
ATOM     20  C   UNL     1     -56.299 -39.645 -63.765  0.00  0.00    +0.000 A 
ATOM     21  C   UNL     1     -55.284 -38.781 -63.297  0.00  0.00    +0.000 A 
ATOM     22  N   UNL     1     -54.104 -39.091 -63.864  0.00  0.00    +0.000 NA
ATOM     23  O   UNL     1     -54.337 -40.187 -64.668  0.00  0.00    +0.000 OA
ENDBRANCH  17  21
ENDBRANCH  15  17
ENDBRANCH   1  15
BRANCH  13  24
ATOM     24  C   UNL     1     -52.411 -34.062 -61.003  0.00  0.00    +0.000 C 
ATOM     25  O   UNL     1     -51.765 -34.871 -60.360  0.00  0.00    +0.000 OA
BRANCH  24  26
ATOM     26  C   UNL     1     -51.735 -33.092 -61.885  0.00  0.00    +0.000 C 
ATOM     27  C   UNL     1     -50.238 -33.160 -62.052  0.00  0.00    +0.000 C 
ATOM     28  C   UNL     1     -50.851 -32.004 -61.322  0.00  0.00    +0.000 C 
ENDBRANCH  24  26
ENDBRANCH  13  24
TORSDOF 5
ENDMDL
MODEL 20
REMARK VINA RESULT:    -5.123     10.616     12.826
REMARK INTER + INTRA:          -7.531
REMARK INTER:                  -6.772
REMARK INTRA:                  -0.760
REMARK UNBOUND:                -0.910
REMARK  Name = 
REMARK  6 active torsions:
REMARK  status: ('A' for Active; 'I' for Inactive)
REMARK    1  A    between atoms: C_1  and  C_2
REMARK    2  A    between atoms: C_4  and  C_5
REMARK    3  A    between atoms: C_5  and  S_6
REMARK    4  A    between atoms: S_6  and  C_8
REMARK    5  A    between atoms: C_20  and  C_21
REMARK    6  A    between atoms: C_21  and  C_23
REMARK                            x       y       z     vdW  Elec       q    Type
REMARK                         _______ _______ _______ _____ _____    ______ ____
ROOT
ATOM      1  C   UNL     1     -66.235 -41.813 -71.190  0.00  0.00    +0.000 A 
ATOM      2  N   UNL     1     -65.134 -41.953 -72.057  0.00  0.00    +0.000 N 
ATOM      3  C   UNL     1     -63.808 -41.977 -71.543  0.00  0.00    +0.000 A 
ATOM      4  C   UNL     1     -62.714 -42.492 -72.265  0.00  0.00    +0.000 A 
ATOM      5 BR   UNL     1     -62.964 -43.367 -73.929  0.00  0.00    +0.000 Br
ATOM      6  C   UNL     1     -61.407 -42.397 -71.767  0.00  0.00    +0.000 A 
ATOM      7  C   UNL     1     -61.184 -41.805 -70.518  0.00  0.00    +0.000 A 
ATOM      8  C   UNL     1     -62.252 -41.289 -69.784  0.00  0.00    +0.000 A 
ATOM      9 CL   UNL     1     -61.880 -40.645 -68.226  0.00  0.00    +0.000 Cl
ATOM     10  C   UNL     1     -63.551 -41.359 -70.310  0.00  0.00    +0.000 A 
ATOM     11  C   UNL     1     -64.729 -40.766 -69.647  0.00  0.00    +0.000 A 
ATOM     12  O   UNL     1     -64.638 -39.769 -68.942  0.00  0.00    +0.000 OA
ATOM     13  C   UNL     1     -66.072 -41.375 -69.923  0.00  0.00    +0.000 A 
ATOM     14  H   UNL     1     -65.305 -42.649 -72.795  0.00  0.00    +0.000 HD
ENDROOT
BRANCH   1  15
ATOM     15  S   UNL     1     -67.709 -42.678 -71.793  0.00  0.00    +0.000 S 
ATOM     16  O   UNL     1     -67.917 -43.789 -70.800  0.00  0.00    +0.000 OA
BRANCH  15  17
ATOM     17  C   UNL     1     -67.347 -43.446 -73.399  0.00  0.00    +0.000 C 
BRANCH  17  21
ATOM     18  C   UNL     1     -70.853 -46.959 -74.660  0.00  0.00    +0.000 C 
ATOM     19  C   UNL     1     -69.769 -45.973 -74.495  0.00  0.00    +0.000 A 
ATOM     20  C   UNL     1     -69.401 -45.098 -73.500  0.00  0.00    +0.000 A 
ATOM     21  C   UNL     1     -68.200 -44.517 -73.965  0.00  0.00    +0.000 A 
ATOM     22  N   UNL     1     -67.905 -44.967 -75.197  0.00  0.00    +0.000 NA
ATOM     23  O   UNL     1     -68.888 -45.878 -75.523  0.00  0.00    +0.000 OA
ENDBRANCH  17  21
ENDBRANCH  15  17
ENDBRANCH   1  15
BRANCH  13  24
ATOM     24  C   UNL     1     -66.916 -41.540 -68.705  0.00  0.00    +0.000 C 
ATOM     25  O   UNL     1     -67.980 -40.955 -68.605  0.00  0.00    +0.000 OA
BRANCH  24  26
ATOM     26  C   UNL     1     -66.464 -42.462 -67.646  0.00  0.00    +0.000 C 
ATOM     27  C   UNL     1     -65.758 -43.738 -68.026  0.00  0.00    +0.000 C 
ATOM     28  C   UNL     1     -67.133 -43.799 -67.434  0.00  0.00    +0.000 C 
ENDBRANCH  24  26
ENDBRANCH  13  24
TORSDOF 5
ENDMDL
