REMARK VINA RESULT:    -5.849      3.712      5.905
REMARK INTER + INTRA:          -8.556
REMARK INTER:                  -7.918
REMARK INTRA:                  -0.639
REMARK UNBOUND:                -0.997
REMARK  Name = 
REMARK  8 active torsions:
REMARK  status: ('A' for Active; 'I' for Inactive)
REMARK    1  A    between atoms: C_1  and  C_2
REMARK    2  A    between atoms: C_4  and  C_5
REMARK    3  A    between atoms: C_5  and  S_6
REMARK    4  A    between atoms: S_6  and  C_8
REMARK    5  A    between atoms: C_20  and  C_21
REMARK    6  A    between atoms: C_21  and  C_23
REMARK    7  A    between atoms: C_23  and  C_24
REMARK    8  A    between atoms: C_23  and  C_25
REMARK                            x       y       z     vdW  Elec       q    Type
REMARK                         _______ _______ _______ _____ _____    ______ ____
ROOT
ATOM      1  C   UNL     1     -57.145 -43.280 -77.384  0.00  0.00    +0.000 A 
ATOM      2  N   UNL     1     -58.237 -43.996 -77.868  0.00  0.00    +0.000 N 
ATOM      3  C   UNL     1     -58.306 -45.402 -77.764  0.00  0.00    +0.000 A 
ATOM      4  C   UNL     1     -59.523 -46.101 -77.880  0.00  0.00    +0.000 A 
ATOM      5 CL   UNL     1     -61.023 -45.251 -77.993  0.00  0.00    +0.000 Cl
ATOM      6  C   UNL     1     -59.554 -47.496 -77.879  0.00  0.00    +0.000 A 
ATOM      7  C   UNL     1     -58.362 -48.212 -77.758  0.00  0.00    +0.000 A 
ATOM      8  C   UNL     1     -57.143 -47.535 -77.627  0.00  0.00    +0.000 A 
ATOM      9 CL   UNL     1     -55.746 -48.527 -77.418  0.00  0.00    +0.000 Cl
ATOM     10  C   UNL     1     -57.116 -46.132 -77.643  0.00  0.00    +0.000 A 
ATOM     11  C   UNL     1     -55.879 -45.311 -77.592  0.00  0.00    +0.000 A 
ATOM     12  O   UNL     1     -54.832 -45.780 -78.024  0.00  0.00    +0.000 OA
ATOM     13  C   UNL     1     -55.956 -43.876 -77.087  0.00  0.00    +0.000 A 
ATOM     14  H   UNL     1     -59.133 -43.502 -77.761  0.00  0.00    +0.000 HD
ENDROOT
BRANCH   1  15
ATOM     15  S   UNL     1     -57.612 -41.548 -76.983  0.00  0.00    +0.000 S 
ATOM     16  O   UNL     1     -56.326 -40.935 -76.502  0.00  0.00    +0.000 OA
BRANCH  15  17
ATOM     17  C   UNL     1     -58.709 -41.749 -75.521  0.00  0.00    +0.000 C 
BRANCH  17  21
ATOM     18  C   UNL     1     -56.243 -40.692 -71.101  0.00  0.00    +0.000 C 
ATOM     19  C   UNL     1     -56.936 -41.193 -72.307  0.00  0.00    +0.000 A 
ATOM     20  C   UNL     1     -57.626 -40.615 -73.346  0.00  0.00    +0.000 A 
ATOM     21  C   UNL     1     -57.989 -41.697 -74.196  0.00  0.00    +0.000 A 
ATOM     22  N   UNL     1     -57.564 -42.857 -73.667  0.00  0.00    +0.000 NA
ATOM     23  O   UNL     1     -56.904 -42.538 -72.496  0.00  0.00    +0.000 OA
ENDBRANCH  17  21
ENDBRANCH  15  17
ENDBRANCH   1  15
BRANCH  13  24
ATOM     24  C   UNL     1     -54.724 -43.398 -76.346  0.00  0.00    +0.000 C 
ATOM     25  O   UNL     1     -54.740 -43.323 -75.110  0.00  0.00    +0.000 OA
BRANCH  24  26
ATOM     26  C   UNL     1     -53.504 -42.857 -77.067  0.00  0.00    +0.000 C 
ATOM     27  C   UNL     1     -53.896 -42.390 -78.457  0.00  0.00    +0.000 C 
ATOM     28  C   UNL     1     -52.790 -41.791 -76.244  0.00  0.00    +0.000 C 
ENDBRANCH  24  26
ENDBRANCH  13  24
TORSDOF 5
