REMARK VINA RESULT:    -7.118      2.124      3.875
REMARK INTER + INTRA:         -10.141
REMARK INTER:                  -8.941
REMARK INTRA:                  -1.200
REMARK UNBOUND:                -0.942
REMARK  Name = 
REMARK  8 active torsions:
REMARK  status: ('A' for Active; 'I' for Inactive)
REMARK    1  A    between atoms: C_1  and  C_2
REMARK    2  A    between atoms: C_4  and  C_5
REMARK    3  A    between atoms: C_5  and  S_6
REMARK    4  A    between atoms: S_6  and  C_8
REMARK    5  A    between atoms: C_20  and  C_21
REMARK    6  A    between atoms: C_21  and  C_23
REMARK    7  A    between atoms: C_23  and  C_24
REMARK    8  A    between atoms: C_23  and  C_25
REMARK                            x       y       z     vdW  Elec       q    Type
REMARK                         _______ _______ _______ _____ _____    ______ ____
ROOT
ATOM      1  C   UNL     1     -55.701 -41.931 -62.854  0.00  0.00    +0.000 A 
ATOM      2  N   UNL     1     -55.128 -43.194 -62.729  0.00  0.00    +0.000 N 
ATOM      3  C   UNL     1     -53.758 -43.414 -62.988  0.00  0.00    +0.000 A 
ATOM      4  C   UNL     1     -53.081 -44.553 -62.509  0.00  0.00    +0.000 A 
ATOM      5 CL   UNL     1     -53.863 -45.660 -61.437  0.00  0.00    +0.000 Cl
ATOM      6  C   UNL     1     -51.755 -44.803 -62.864  0.00  0.00    +0.000 A 
ATOM      7  C   UNL     1     -51.086 -43.911 -63.705  0.00  0.00    +0.000 A 
ATOM      8  C   UNL     1     -51.738 -42.765 -64.179  0.00  0.00    +0.000 A 
ATOM      9 CL   UNL     1     -50.788 -41.705 -65.154  0.00  0.00    +0.000 Cl
ATOM     10  C   UNL     1     -53.076 -42.526 -63.830  0.00  0.00    +0.000 A 
ATOM     11  C   UNL     1     -53.889 -41.391 -64.336  0.00  0.00    +0.000 A 
ATOM     12  O   UNL     1     -53.622 -40.904 -65.428  0.00  0.00    +0.000 OA
ATOM     13  C   UNL     1     -55.092 -40.917 -63.530  0.00  0.00    +0.000 A 
ATOM     14  H   UNL     1     -55.527 -43.753 -61.964  0.00  0.00    +0.000 HD
ENDROOT
BRANCH   1  15
ATOM     15  S   UNL     1     -57.203 -41.777 -61.803  0.00  0.00    +0.000 S 
ATOM     16  O   UNL     1     -56.932 -42.713 -60.657  0.00  0.00    +0.000 OA
BRANCH  15  17
ATOM     17  C   UNL     1     -58.509 -42.545 -62.845  0.00  0.00    +0.000 C 
BRANCH  17  21
ATOM     18  C   UNL     1     -57.611 -42.365 -67.934  0.00  0.00    +0.000 C 
ATOM     19  C   UNL     1     -57.760 -42.594 -66.481  0.00  0.00    +0.000 A 
ATOM     20  C   UNL     1     -58.222 -41.852 -65.419  0.00  0.00    +0.000 A 
ATOM     21  C   UNL     1     -58.124 -42.718 -64.293  0.00  0.00    +0.000 A 
ATOM     22  N   UNL     1     -57.600 -43.897 -64.667  0.00  0.00    +0.000 NA
ATOM     23  O   UNL     1     -57.381 -43.817 -66.029  0.00  0.00    +0.000 OA
ENDBRANCH  17  21
ENDBRANCH  15  17
ENDBRANCH   1  15
BRANCH  13  24
ATOM     24  C   UNL     1     -55.365 -39.429 -63.614  0.00  0.00    +0.000 C 
ATOM     25  O   UNL     1     -56.391 -39.023 -64.177  0.00  0.00    +0.000 OA
BRANCH  24  26
ATOM     26  C   UNL     1     -54.352 -38.393 -63.166  0.00  0.00    +0.000 C 
ATOM     27  C   UNL     1     -53.974 -37.505 -64.337  0.00  0.00    +0.000 C 
ATOM     28  C   UNL     1     -54.840 -37.619 -61.947  0.00  0.00    +0.000 C 
ENDBRANCH  24  26
ENDBRANCH  13  24
TORSDOF 5
