REMARK VINA RESULT:    -6.147      3.368      5.758
REMARK INTER + INTRA:          -9.182
REMARK INTER:                  -7.855
REMARK INTRA:                  -1.327
REMARK UNBOUND:                -1.238
REMARK  Name = 
REMARK  8 active torsions:
REMARK  status: ('A' for Active; 'I' for Inactive)
REMARK    1  A    between atoms: C_1  and  C_2
REMARK    2  A    between atoms: C_4  and  C_5
REMARK    3  A    between atoms: C_5  and  S_6
REMARK    4  A    between atoms: S_6  and  C_8
REMARK    5  A    between atoms: C_20  and  C_21
REMARK    6  A    between atoms: C_21  and  C_23
REMARK    7  A    between atoms: C_23  and  C_24
REMARK    8  A    between atoms: C_23  and  C_25
REMARK                            x       y       z     vdW  Elec       q    Type
REMARK                         _______ _______ _______ _____ _____    ______ ____
ROOT
ATOM      1  C   UNL     1     -57.724 -40.658 -63.180  0.00  0.00    +0.000 A 
ATOM      2  N   UNL     1     -57.210 -39.440 -62.747  0.00  0.00    +0.000 N 
ATOM      3  C   UNL     1     -56.060 -38.874 -63.331  0.00  0.00    +0.000 A 
ATOM      4  C   UNL     1     -55.761 -37.503 -63.222  0.00  0.00    +0.000 A 
ATOM      5 BR   UNL     1     -56.986 -36.299 -62.415  0.00  0.00    +0.000 Br
ATOM      6  C   UNL     1     -54.574 -36.982 -63.743  0.00  0.00    +0.000 A 
ATOM      7  C   UNL     1     -53.669 -37.823 -64.385  0.00  0.00    +0.000 A 
ATOM      8  C   UNL     1     -53.952 -39.195 -64.511  0.00  0.00    +0.000 A 
ATOM      9 CL   UNL     1     -52.790 -40.123 -65.389  0.00  0.00    +0.000 Cl
ATOM     10  C   UNL     1     -55.147 -39.722 -63.979  0.00  0.00    +0.000 A 
ATOM     11  C   UNL     1     -55.521 -41.159 -64.031  0.00  0.00    +0.000 A 
ATOM     12  O   UNL     1     -54.652 -42.017 -64.146  0.00  0.00    +0.000 OA
ATOM     13  C   UNL     1     -56.996 -41.532 -63.915  0.00  0.00    +0.000 A 
ATOM     14  H   UNL     1     -57.927 -38.775 -62.426  0.00  0.00    +0.000 HD
ENDROOT
BRANCH   1  15
ATOM     15  S   UNL     1     -59.516 -40.797 -62.820  0.00  0.00    +0.000 S 
ATOM     16  O   UNL     1     -59.916 -39.397 -62.441  0.00  0.00    +0.000 OA
BRANCH  15  17
ATOM     17  C   UNL     1     -59.562 -41.838 -61.321  0.00  0.00    +0.000 C 
BRANCH  17  21
ATOM     18  C   UNL     1     -55.267 -42.182 -58.452  0.00  0.00    +0.000 C 
ATOM     19  C   UNL     1     -56.508 -41.889 -59.202  0.00  0.00    +0.000 A 
ATOM     20  C   UNL     1     -57.256 -42.555 -60.145  0.00  0.00    +0.000 A 
ATOM     21  C   UNL     1     -58.358 -41.695 -60.420  0.00  0.00    +0.000 A 
ATOM     22  N   UNL     1     -58.250 -40.570 -59.691  0.00  0.00    +0.000 NA
ATOM     23  O   UNL     1     -57.101 -40.697 -58.934  0.00  0.00    +0.000 OA
ENDBRANCH  17  21
ENDBRANCH  15  17
ENDBRANCH   1  15
BRANCH  13  24
ATOM     24  C   UNL     1     -57.442 -42.775 -64.652  0.00  0.00    +0.000 C 
ATOM     25  O   UNL     1     -57.522 -43.851 -64.060  0.00  0.00    +0.000 OA
BRANCH  24  26
ATOM     26  C   UNL     1     -57.734 -42.721 -66.153  0.00  0.00    +0.000 C 
ATOM     27  C   UNL     1     -57.872 -44.118 -66.753  0.00  0.00    +0.000 C 
ATOM     28  C   UNL     1     -58.977 -41.884 -66.464  0.00  0.00    +0.000 C 
ENDBRANCH  24  26
ENDBRANCH  13  24
TORSDOF 5
