REMARK VINA RESULT:    -5.958     11.347     13.751
REMARK INTER + INTRA:          -8.609
REMARK INTER:                  -7.422
REMARK INTRA:                  -1.187
REMARK UNBOUND:                -0.910
REMARK  Name = 
REMARK  6 active torsions:
REMARK  status: ('A' for Active; 'I' for Inactive)
REMARK    1  A    between atoms: C_1  and  C_2
REMARK    2  A    between atoms: C_4  and  C_5
REMARK    3  A    between atoms: C_5  and  S_6
REMARK    4  A    between atoms: S_6  and  C_8
REMARK    5  A    between atoms: C_20  and  C_21
REMARK    6  A    between atoms: C_21  and  C_23
REMARK                            x       y       z     vdW  Elec       q    Type
REMARK                         _______ _______ _______ _____ _____    ______ ____
ROOT
ATOM      1  C   UNL     1     -58.038 -40.209 -62.837  0.00  0.00    +0.000 A 
ATOM      2  N   UNL     1     -57.406 -38.979 -62.574  0.00  0.00    +0.000 N 
ATOM      3  C   UNL     1     -56.203 -38.625 -63.245  0.00  0.00    +0.000 A 
ATOM      4  C   UNL     1     -55.735 -37.301 -63.336  0.00  0.00    +0.000 A 
ATOM      5 BR   UNL     1     -56.784 -35.847 -62.715  0.00  0.00    +0.000 Br
ATOM      6  C   UNL     1     -54.490 -37.009 -63.910  0.00  0.00    +0.000 A 
ATOM      7  C   UNL     1     -53.707 -38.047 -64.428  0.00  0.00    +0.000 A 
ATOM      8  C   UNL     1     -54.150 -39.367 -64.351  0.00  0.00    +0.000 A 
ATOM      9 CL   UNL     1     -53.144 -40.565 -65.083  0.00  0.00    +0.000 Cl
ATOM     10  C   UNL     1     -55.382 -39.650 -63.742  0.00  0.00    +0.000 A 
ATOM     11  C   UNL     1     -55.893 -41.019 -63.538  0.00  0.00    +0.000 A 
ATOM     12  O   UNL     1     -55.139 -41.970 -63.371  0.00  0.00    +0.000 OA
ATOM     13  C   UNL     1     -57.378 -41.211 -63.460  0.00  0.00    +0.000 A 
ATOM     14  H   UNL     1     -58.079 -38.204 -62.494  0.00  0.00    +0.000 HD
ENDROOT
BRANCH   1  15
ATOM     15  S   UNL     1     -59.841 -40.114 -62.677  0.00  0.00    +0.000 S 
ATOM     16  O   UNL     1     -60.094 -38.718 -62.178  0.00  0.00    +0.000 OA
BRANCH  15  17
ATOM     17  C   UNL     1     -60.396 -41.262 -61.382  0.00  0.00    +0.000 C 
BRANCH  17  21
ATOM     18  C   UNL     1     -57.175 -42.768 -57.698  0.00  0.00    +0.000 C 
ATOM     19  C   UNL     1     -58.140 -42.165 -58.635  0.00  0.00    +0.000 A 
ATOM     20  C   UNL     1     -58.579 -42.472 -59.901  0.00  0.00    +0.000 A 
ATOM     21  C   UNL     1     -59.589 -41.521 -60.167  0.00  0.00    +0.000 A 
ATOM     22  N   UNL     1     -59.698 -40.651 -59.147  0.00  0.00    +0.000 NA
ATOM     23  O   UNL     1     -58.791 -41.060 -58.192  0.00  0.00    +0.000 OA
ENDBRANCH  17  21
ENDBRANCH  15  17
ENDBRANCH   1  15
BRANCH  13  24
ATOM     24  C   UNL     1     -57.872 -42.386 -64.233  0.00  0.00    +0.000 C 
ATOM     25  O   UNL     1     -58.217 -43.404 -63.660  0.00  0.00    +0.000 OA
BRANCH  24  26
ATOM     26  C   UNL     1     -57.981 -42.277 -65.700  0.00  0.00    +0.000 C 
ATOM     27  C   UNL     1     -58.268 -43.511 -66.516  0.00  0.00    +0.000 C 
ATOM     28  C   UNL     1     -56.923 -42.857 -66.609  0.00  0.00    +0.000 C 
ENDBRANCH  24  26
ENDBRANCH  13  24
TORSDOF 5
