REMARK VINA RESULT:    -7.260      0.000      0.000
REMARK INTER + INTRA:         -10.424
REMARK INTER:                  -9.382
REMARK INTRA:                  -1.042
REMARK UNBOUND:                -1.042
REMARK  Name = 
REMARK  8 active torsions:
REMARK  status: ('A' for Active; 'I' for Inactive)
REMARK    1  A    between atoms: C_1  and  C_2
REMARK    2  A    between atoms: C_4  and  C_5
REMARK    3  A    between atoms: C_5  and  S_6
REMARK    4  A    between atoms: S_6  and  C_8
REMARK    5  A    between atoms: C_20  and  C_21
REMARK    6  A    between atoms: C_21  and  C_23
REMARK    7  A    between atoms: C_23  and  C_24
REMARK    8  A    between atoms: C_23  and  C_25
REMARK                            x       y       z     vdW  Elec       q    Type
REMARK                         _______ _______ _______ _____ _____    ______ ____
ROOT
ATOM      1  C   UNL     1     -55.604 -41.822 -62.863  0.00  0.00    +0.000 A 
ATOM      2  N   UNL     1     -54.887 -43.012 -62.940  0.00  0.00    +0.000 N 
ATOM      3  C   UNL     1     -53.532 -43.034 -63.325  0.00  0.00    +0.000 A 
ATOM      4  C   UNL     1     -52.684 -44.115 -63.019  0.00  0.00    +0.000 A 
ATOM      5 BR   UNL     1     -53.279 -45.542 -61.921  0.00  0.00    +0.000 Br
ATOM      6  C   UNL     1     -51.365 -44.147 -63.482  0.00  0.00    +0.000 A 
ATOM      7  C   UNL     1     -50.874 -43.097 -64.252  0.00  0.00    +0.000 A 
ATOM      8  C   UNL     1     -51.703 -42.004 -64.562  0.00  0.00    +0.000 A 
ATOM      9 CL   UNL     1     -50.961 -40.730 -65.462  0.00  0.00    +0.000 Cl
ATOM     10  C   UNL     1     -53.035 -41.975 -64.102  0.00  0.00    +0.000 A 
ATOM     11  C   UNL     1     -53.999 -40.884 -64.403  0.00  0.00    +0.000 A 
ATOM     12  O   UNL     1     -53.840 -40.179 -65.395  0.00  0.00    +0.000 OA
ATOM     13  C   UNL     1     -55.188 -40.684 -63.467  0.00  0.00    +0.000 A 
ATOM     14  H   UNL     1     -55.170 -43.715 -62.244  0.00  0.00    +0.000 HD
ENDROOT
BRANCH   1  15
ATOM     15  S   UNL     1     -57.008 -41.958 -61.693  0.00  0.00    +0.000 S 
ATOM     16  O   UNL     1     -56.429 -42.703 -60.521  0.00  0.00    +0.000 OA
BRANCH  15  17
ATOM     17  C   UNL     1     -58.172 -43.064 -62.562  0.00  0.00    +0.000 C 
BRANCH  17  21
ATOM     18  C   UNL     1     -58.015 -42.877 -67.733  0.00  0.00    +0.000 C 
ATOM     19  C   UNL     1     -58.190 -42.770 -66.268  0.00  0.00    +0.000 A 
ATOM     20  C   UNL     1     -57.795 -43.517 -65.182  0.00  0.00    +0.000 A 
ATOM     21  C   UNL     1     -58.288 -42.812 -64.047  0.00  0.00    +0.000 A 
ATOM     22  N   UNL     1     -58.957 -41.717 -64.447  0.00  0.00    +0.000 NA
ATOM     23  O   UNL     1     -58.890 -41.694 -65.827  0.00  0.00    +0.000 OA
ENDBRANCH  17  21
ENDBRANCH  15  17
ENDBRANCH   1  15
BRANCH  13  24
ATOM     24  C   UNL     1     -55.701 -39.269 -63.315  0.00  0.00    +0.000 C 
ATOM     25  O   UNL     1     -56.892 -39.020 -63.500  0.00  0.00    +0.000 OA
BRANCH  24  26
ATOM     26  C   UNL     1     -54.736 -38.127 -62.995  0.00  0.00    +0.000 C 
ATOM     27  C   UNL     1     -54.791 -37.027 -64.052  0.00  0.00    +0.000 C 
ATOM     28  C   UNL     1     -54.985 -37.540 -61.604  0.00  0.00    +0.000 C 
ENDBRANCH  24  26
ENDBRANCH  13  24
TORSDOF 5
