REMARK VINA RESULT:    -7.315     10.390     12.794
REMARK INTER + INTRA:         -10.137
REMARK INTER:                  -9.057
REMARK INTRA:                  -1.079
REMARK UNBOUND:                -0.684
REMARK  Name = 
REMARK  8 active torsions:
REMARK  status: ('A' for Active; 'I' for Inactive)
REMARK    1  A    between atoms: C_1  and  C_2
REMARK    2  A    between atoms: C_4  and  C_5
REMARK    3  A    between atoms: C_5  and  S_6
REMARK    4  A    between atoms: S_6  and  C_8
REMARK    5  A    between atoms: C_20  and  C_21
REMARK    6  A    between atoms: C_21  and  C_23
REMARK    7  A    between atoms: C_23  and  C_24
REMARK    8  A    between atoms: C_23  and  C_25
REMARK                            x       y       z     vdW  Elec       q    Type
REMARK                         _______ _______ _______ _____ _____    ______ ____
ROOT
ATOM      1  C   UNL     1     -55.635 -42.269 -77.368  0.00  0.00    +0.000 A 
ATOM      2  N   UNL     1     -54.911 -41.085 -77.264  0.00  0.00    +0.000 N 
ATOM      3  C   UNL     1     -53.569 -41.075 -76.835  0.00  0.00    +0.000 A 
ATOM      4  C   UNL     1     -52.702 -40.000 -77.110  0.00  0.00    +0.000 A 
ATOM      5 BR   UNL     1     -53.251 -38.565 -78.222  0.00  0.00    +0.000 Br
ATOM      6  C   UNL     1     -51.399 -39.981 -76.606  0.00  0.00    +0.000 A 
ATOM      7  C   UNL     1     -50.941 -41.037 -75.824  0.00  0.00    +0.000 A 
ATOM      8  C   UNL     1     -51.788 -42.124 -75.544  0.00  0.00    +0.000 A 
ATOM      9 CL   UNL     1     -51.086 -43.407 -74.625  0.00  0.00    +0.000 Cl
ATOM     10  C   UNL     1     -53.106 -42.141 -76.047  0.00  0.00    +0.000 A 
ATOM     11  C   UNL     1     -54.087 -43.224 -75.781  0.00  0.00    +0.000 A 
ATOM     12  O   UNL     1     -53.965 -43.934 -74.787  0.00  0.00    +0.000 OA
ATOM     13  C   UNL     1     -55.247 -43.412 -76.755  0.00  0.00    +0.000 A 
ATOM     14  H   UNL     1     -55.165 -40.377 -77.966  0.00  0.00    +0.000 HD
ENDROOT
BRANCH   1  15
ATOM     15  S   UNL     1     -56.999 -42.117 -78.582  0.00  0.00    +0.000 S 
ATOM     16  O   UNL     1     -56.363 -41.419 -79.753  0.00  0.00    +0.000 OA
BRANCH  15  17
ATOM     17  C   UNL     1     -58.152 -40.956 -77.773  0.00  0.00    +0.000 C 
BRANCH  17  21
ATOM     18  C   UNL     1     -58.040 -40.884 -72.598  0.00  0.00    +0.000 C 
ATOM     19  C   UNL     1     -58.201 -41.066 -74.057  0.00  0.00    +0.000 A 
ATOM     20  C   UNL     1     -57.803 -40.369 -75.175  0.00  0.00    +0.000 A 
ATOM     21  C   UNL     1     -58.279 -41.135 -76.279  0.00  0.00    +0.000 A 
ATOM     22  N   UNL     1     -58.941 -42.216 -75.830  0.00  0.00    +0.000 NA
ATOM     23  O   UNL     1     -58.886 -42.170 -74.450  0.00  0.00    +0.000 OA
ENDBRANCH  17  21
ENDBRANCH  15  17
ENDBRANCH   1  15
BRANCH  13  24
ATOM     24  C   UNL     1     -55.767 -44.822 -76.929  0.00  0.00    +0.000 C 
ATOM     25  O   UNL     1     -56.945 -45.081 -76.689  0.00  0.00    +0.000 OA
BRANCH  24  26
ATOM     26  C   UNL     1     -54.819 -45.950 -77.338  0.00  0.00    +0.000 C 
ATOM     27  C   UNL     1     -54.726 -47.029 -76.262  0.00  0.00    +0.000 C 
ATOM     28  C   UNL     1     -55.215 -46.571 -78.680  0.00  0.00    +0.000 C 
ENDBRANCH  24  26
ENDBRANCH  13  24
TORSDOF 5
