REMARK VINA RESULT:    -5.566     14.562     17.333
REMARK INTER + INTRA:          -8.094
REMARK INTER:                  -7.367
REMARK INTRA:                  -0.727
REMARK UNBOUND:                -0.901
REMARK  Name = 
REMARK  6 active torsions:
REMARK  status: ('A' for Active; 'I' for Inactive)
REMARK    1  A    between atoms: C_1  and  C_2
REMARK    2  A    between atoms: C_4  and  C_5
REMARK    3  A    between atoms: C_5  and  S_6
REMARK    4  A    between atoms: S_6  and  C_8
REMARK    5  A    between atoms: C_20  and  C_21
REMARK    6  A    between atoms: C_21  and  C_23
REMARK                            x       y       z     vdW  Elec       q    Type
REMARK                         _______ _______ _______ _____ _____    ______ ____
ROOT
ATOM      1  C   UNL     1     -66.140 -49.600 -54.515  0.00  0.00    +0.000 A 
ATOM      2  N   UNL     1     -66.916 -50.622 -55.096  0.00  0.00    +0.000 N 
ATOM      3  C   UNL     1     -67.474 -51.653 -54.292  0.00  0.00    +0.000 A 
ATOM      4  C   UNL     1     -68.549 -52.459 -54.713  0.00  0.00    +0.000 A 
ATOM      5 BR   UNL     1     -69.462 -52.103 -56.337  0.00  0.00    +0.000 Br
ATOM      6  C   UNL     1     -68.996 -53.536 -53.935  0.00  0.00    +0.000 A 
ATOM      7  C   UNL     1     -68.383 -53.803 -52.705  0.00  0.00    +0.000 A 
ATOM      8  C   UNL     1     -67.317 -53.017 -52.266  0.00  0.00    +0.000 A 
ATOM      9 CL   UNL     1     -66.679 -53.383 -50.704  0.00  0.00    +0.000 Cl
ATOM     10  C   UNL     1     -66.856 -51.964 -53.071  0.00  0.00    +0.000 A 
ATOM     11  C   UNL     1     -65.684 -51.135 -52.731  0.00  0.00    +0.000 A 
ATOM     12  O   UNL     1     -64.745 -51.581 -52.083  0.00  0.00    +0.000 OA
ATOM     13  C   UNL     1     -65.630 -49.737 -53.271  0.00  0.00    +0.000 A 
ATOM     14  H   UNL     1     -67.561 -50.261 -55.813  0.00  0.00    +0.000 HD
ENDROOT
BRANCH   1  15
ATOM     15  S   UNL     1     -66.302 -48.021 -55.389  0.00  0.00    +0.000 S 
ATOM     16  O   UNL     1     -67.242 -47.219 -54.531  0.00  0.00    +0.000 OA
BRANCH  15  17
ATOM     17  C   UNL     1     -67.121 -48.292 -56.987  0.00  0.00    +0.000 C 
BRANCH  17  21
ATOM     18  C   UNL     1     -66.727 -44.489 -60.393  0.00  0.00    +0.000 C 
ATOM     19  C   UNL     1     -66.714 -45.694 -59.544  0.00  0.00    +0.000 A 
ATOM     20  C   UNL     1     -67.213 -46.007 -58.301  0.00  0.00    +0.000 A 
ATOM     21  C   UNL     1     -66.919 -47.379 -58.136  0.00  0.00    +0.000 A 
ATOM     22  N   UNL     1     -66.222 -47.842 -59.188  0.00  0.00    +0.000 NA
ATOM     23  O   UNL     1     -66.099 -46.785 -60.066  0.00  0.00    +0.000 OA
ENDBRANCH  17  21
ENDBRANCH  15  17
ENDBRANCH   1  15
BRANCH  13  24
ATOM     24  C   UNL     1     -65.182 -48.725 -52.273  0.00  0.00    +0.000 C 
ATOM     25  O   UNL     1     -65.849 -48.499 -51.278  0.00  0.00    +0.000 OA
BRANCH  24  26
ATOM     26  C   UNL     1     -63.895 -48.036 -52.486  0.00  0.00    +0.000 C 
ATOM     27  C   UNL     1     -63.441 -46.993 -51.498  0.00  0.00    +0.000 C 
ATOM     28  C   UNL     1     -63.842 -46.580 -52.881  0.00  0.00    +0.000 C 
ENDBRANCH  24  26
ENDBRANCH  13  24
TORSDOF 5
