REMARK VINA RESULT:    -5.013     13.004     15.591
REMARK INTER + INTRA:          -7.150
REMARK INTER:                  -6.359
REMARK INTRA:                  -0.791
REMARK UNBOUND:                -0.965
REMARK  Name = 
REMARK  6 active torsions:
REMARK  status: ('A' for Active; 'I' for Inactive)
REMARK    1  A    between atoms: C_1  and  C_2
REMARK    2  A    between atoms: C_2  and  C_4
REMARK    3  A    between atoms: C_5  and  S_6
REMARK    4  A    between atoms: S_6  and  C_8
REMARK    5  A    between atoms: C_8  and  C_9
REMARK    6  A    between atoms: C_11  and  C_12
REMARK                            x       y       z     vdW  Elec       q    Type
REMARK                         _______ _______ _______ _____ _____    ______ ____
ROOT
ATOM      1  C   UNL     1     -65.066 -43.162 -69.922  0.00  0.00    +0.000 A 
ATOM      2  C   UNL     1     -66.270 -43.468 -70.458  0.00  0.00    +0.000 A 
ATOM      3  N   UNL     1     -66.445 -43.810 -71.783  0.00  0.00    +0.000 N 
ATOM      4  C   UNL     1     -65.410 -43.743 -72.731  0.00  0.00    +0.000 A 
ATOM      5  C   UNL     1     -65.644 -44.097 -74.075  0.00  0.00    +0.000 A 
ATOM      6 BR   UNL     1     -67.376 -44.612 -74.664  0.00  0.00    +0.000 Br
ATOM      7  C   UNL     1     -64.611 -44.084 -75.011  0.00  0.00    +0.000 A 
ATOM      8  C   UNL     1     -63.330 -43.718 -74.612  0.00  0.00    +0.000 A 
ATOM      9  C   UNL     1     -63.068 -43.386 -73.278  0.00  0.00    +0.000 A 
ATOM     10 CL   UNL     1     -61.430 -42.942 -72.942  0.00  0.00    +0.000 Cl
ATOM     11  C   UNL     1     -64.106 -43.420 -72.324  0.00  0.00    +0.000 A 
ATOM     12  C   UNL     1     -63.905 -43.110 -70.883  0.00  0.00    +0.000 A 
ATOM     13  O   UNL     1     -62.798 -42.769 -70.482  0.00  0.00    +0.000 OA
ATOM     14  H   UNL     1     -67.389 -43.683 -72.152  0.00  0.00    +0.000 HD
ENDROOT
BRANCH   1  16
ATOM     15  C   UNL     1     -64.841 -41.395 -68.026  0.00  0.00    +0.000 C 
ATOM     16  C   UNL     1     -64.828 -42.841 -68.470  0.00  0.00    +0.000 C 
ATOM     17  O   UNL     1     -64.599 -43.718 -67.641  0.00  0.00    +0.000 OA
ENDBRANCH   1  16
BRANCH   2  18
ATOM     18  S   UNL     1     -67.812 -43.295 -69.490  0.00  0.00    +0.000 S 
ATOM     19  O   UNL     1     -68.038 -41.808 -69.459  0.00  0.00    +0.000 OA
BRANCH  18  20
ATOM     20  C   UNL     1     -69.004 -43.960 -70.708  0.00  0.00    +0.000 C 
BRANCH  20  21
ATOM     21  C   UNL     1     -69.551 -45.286 -70.294  0.00  0.00    +0.000 A 
ATOM     22  C   UNL     1     -70.186 -46.283 -71.081  0.00  0.00    +0.000 A 
ATOM     23  C   UNL     1     -70.405 -47.323 -70.213  0.00  0.00    +0.000 A 
ATOM     24  C   UNL     1     -71.006 -48.667 -70.335  0.00  0.00    +0.000 C 
ATOM     25  O   UNL     1     -69.933 -46.984 -68.984  0.00  0.00    +0.000 OA
ATOM     26  N   UNL     1     -69.391 -45.710 -69.032  0.00  0.00    +0.000 NA
ENDBRANCH  20  21
ENDBRANCH  18  20
ENDBRANCH   2  18
TORSDOF 4
