REMARK VINA RESULT:    -6.793      4.505      6.047
REMARK INTER + INTRA:          -9.652
REMARK INTER:                  -8.774
REMARK INTRA:                  -0.878
REMARK UNBOUND:                -0.874
REMARK  Name = 
REMARK  8 active torsions:
REMARK  status: ('A' for Active; 'I' for Inactive)
REMARK    1  A    between atoms: C_1  and  C_2
REMARK    2  A    between atoms: C_4  and  C_5
REMARK    3  A    between atoms: C_5  and  S_6
REMARK    4  A    between atoms: S_6  and  C_8
REMARK    5  A    between atoms: C_20  and  C_21
REMARK    6  A    between atoms: C_21  and  C_23
REMARK    7  A    between atoms: C_23  and  C_24
REMARK    8  A    between atoms: C_23  and  C_25
REMARK                            x       y       z     vdW  Elec       q    Type
REMARK                         _______ _______ _______ _____ _____    ______ ____
ROOT
ATOM      1  C   UNL     1     -54.186 -43.090 -78.183  0.00  0.00    +0.000 A 
ATOM      2  N   UNL     1     -54.068 -43.832 -77.012  0.00  0.00    +0.000 N 
ATOM      3  C   UNL     1     -54.572 -45.144 -76.914  0.00  0.00    +0.000 A 
ATOM      4  C   UNL     1     -54.119 -46.049 -75.936  0.00  0.00    +0.000 A 
ATOM      5 BR   UNL     1     -52.677 -45.604 -74.787  0.00  0.00    +0.000 Br
ATOM      6  C   UNL     1     -54.691 -47.319 -75.812  0.00  0.00    +0.000 A 
ATOM      7  C   UNL     1     -55.721 -47.703 -76.666  0.00  0.00    +0.000 A 
ATOM      8  C   UNL     1     -56.183 -46.816 -77.655  0.00  0.00    +0.000 A 
ATOM      9 CL   UNL     1     -57.412 -47.430 -78.700  0.00  0.00    +0.000 Cl
ATOM     10  C   UNL     1     -55.610 -45.533 -77.776  0.00  0.00    +0.000 A 
ATOM     11  C   UNL     1     -56.048 -44.513 -78.764  0.00  0.00    +0.000 A 
ATOM     12  O   UNL     1     -57.183 -44.556 -79.230  0.00  0.00    +0.000 OA
ATOM     13  C   UNL     1     -55.067 -43.414 -79.160  0.00  0.00    +0.000 A 
ATOM     14  H   UNL     1     -53.208 -43.638 -76.480  0.00  0.00    +0.000 HD
ENDROOT
BRANCH   1  15
ATOM     15  S   UNL     1     -52.882 -41.809 -78.302  0.00  0.00    +0.000 S 
ATOM     16  O   UNL     1     -52.015 -42.282 -79.437  0.00  0.00    +0.000 OA
BRANCH  15  17
ATOM     17  C   UNL     1     -51.954 -42.010 -76.743  0.00  0.00    +0.000 C 
BRANCH  17  21
ATOM     18  C   UNL     1     -48.859 -38.333 -74.819  0.00  0.00    +0.000 C 
ATOM     19  C   UNL     1     -49.859 -39.228 -75.442  0.00  0.00    +0.000 A 
ATOM     20  C   UNL     1     -49.962 -40.586 -75.641  0.00  0.00    +0.000 A 
ATOM     21  C   UNL     1     -51.218 -40.772 -76.286  0.00  0.00    +0.000 A 
ATOM     22  N   UNL     1     -51.814 -39.582 -76.475  0.00  0.00    +0.000 NA
ATOM     23  O   UNL     1     -50.968 -38.627 -75.946  0.00  0.00    +0.000 OA
ENDBRANCH  17  21
ENDBRANCH  15  17
ENDBRANCH   1  15
BRANCH  13  24
ATOM     24  C   UNL     1     -55.183 -42.875 -80.569  0.00  0.00    +0.000 C 
ATOM     25  O   UNL     1     -54.734 -43.519 -81.516  0.00  0.00    +0.000 OA
BRANCH  24  26
ATOM     26  C   UNL     1     -55.797 -41.498 -80.821  0.00  0.00    +0.000 C 
ATOM     27  C   UNL     1     -54.763 -40.504 -81.345  0.00  0.00    +0.000 C 
ATOM     28  C   UNL     1     -56.994 -41.571 -81.773  0.00  0.00    +0.000 C 
ENDBRANCH  24  26
ENDBRANCH  13  24
TORSDOF 5
