REMARK VINA RESULT:    -6.164      3.741      5.719
REMARK INTER + INTRA:          -8.341
REMARK INTER:                  -7.703
REMARK INTRA:                  -0.639
REMARK UNBOUND:                -0.736
REMARK  Name = 
REMARK  6 active torsions:
REMARK  status: ('A' for Active; 'I' for Inactive)
REMARK    1  A    between atoms: C_1  and  C_2
REMARK    2  A    between atoms: C_2  and  C_4
REMARK    3  A    between atoms: C_5  and  S_6
REMARK    4  A    between atoms: S_6  and  C_8
REMARK    5  A    between atoms: C_8  and  C_9
REMARK    6  A    between atoms: C_11  and  C_12
REMARK                            x       y       z     vdW  Elec       q    Type
REMARK                         _______ _______ _______ _____ _____    ______ ____
ROOT
ATOM      1  C   UNL     1     -55.222 -42.907 -78.479  0.00  0.00    +0.000 A 
ATOM      2  C   UNL     1     -54.696 -43.395 -77.334  0.00  0.00    +0.000 A 
ATOM      3  N   UNL     1     -54.723 -44.739 -77.003  0.00  0.00    +0.000 N 
ATOM      4  C   UNL     1     -55.543 -45.653 -77.690  0.00  0.00    +0.000 A 
ATOM      5  C   UNL     1     -55.744 -46.955 -77.202  0.00  0.00    +0.000 A 
ATOM      6 BR   UNL     1     -54.973 -47.511 -75.559  0.00  0.00    +0.000 Br
ATOM      7  C   UNL     1     -56.529 -47.866 -77.904  0.00  0.00    +0.000 A 
ATOM      8  C   UNL     1     -57.119 -47.484 -79.107  0.00  0.00    +0.000 A 
ATOM      9  C   UNL     1     -56.907 -46.200 -79.626  0.00  0.00    +0.000 A 
ATOM     10 CL   UNL     1     -57.746 -45.824 -81.088  0.00  0.00    +0.000 Cl
ATOM     11  C   UNL     1     -56.094 -45.291 -78.931  0.00  0.00    +0.000 A 
ATOM     12  C   UNL     1     -55.749 -43.936 -79.440  0.00  0.00    +0.000 A 
ATOM     13  O   UNL     1     -55.846 -43.668 -80.631  0.00  0.00    +0.000 OA
ATOM     14  H   UNL     1     -54.652 -44.920 -75.999  0.00  0.00    +0.000 HD
ENDROOT
BRANCH   1  16
ATOM     15  C   UNL     1     -54.172 -40.822 -79.642  0.00  0.00    +0.000 C 
ATOM     16  C   UNL     1     -55.302 -41.452 -78.849  0.00  0.00    +0.000 C 
ATOM     17  O   UNL     1     -56.267 -40.768 -78.517  0.00  0.00    +0.000 OA
ENDBRANCH   1  16
BRANCH   2  18
ATOM     18  S   UNL     1     -54.023 -42.302 -76.038  0.00  0.00    +0.000 S 
ATOM     19  O   UNL     1     -53.980 -43.191 -74.826  0.00  0.00    +0.000 OA
BRANCH  18  20
ATOM     20  C   UNL     1     -52.301 -42.199 -76.666  0.00  0.00    +0.000 C 
BRANCH  20  21
ATOM     21  C   UNL     1     -51.544 -40.992 -76.212  0.00  0.00    +0.000 A 
ATOM     22  C   UNL     1     -50.282 -40.873 -75.574  0.00  0.00    +0.000 A 
ATOM     23  C   UNL     1     -50.055 -39.519 -75.500  0.00  0.00    +0.000 A 
ATOM     24  C   UNL     1     -48.960 -38.676 -74.982  0.00  0.00    +0.000 C 
ATOM     25  O   UNL     1     -51.105 -38.863 -76.056  0.00  0.00    +0.000 OA
ATOM     26  N   UNL     1     -52.037 -39.778 -76.507  0.00  0.00    +0.000 NA
ENDBRANCH  20  21
ENDBRANCH  18  20
ENDBRANCH   2  18
TORSDOF 4
