REMARK VINA RESULT:    -5.322     12.925     15.369
REMARK INTER + INTRA:          -7.931
REMARK INTER:                  -6.961
REMARK INTRA:                  -0.970
REMARK UNBOUND:                -1.054
REMARK  Name = 
REMARK  8 active torsions:
REMARK  status: ('A' for Active; 'I' for Inactive)
REMARK    1  A    between atoms: C_1  and  C_2
REMARK    2  A    between atoms: C_4  and  C_5
REMARK    3  A    between atoms: C_5  and  S_6
REMARK    4  A    between atoms: S_6  and  C_8
REMARK    5  A    between atoms: C_20  and  C_21
REMARK    6  A    between atoms: C_21  and  C_23
REMARK    7  A    between atoms: C_23  and  C_24
REMARK    8  A    between atoms: C_23  and  C_25
REMARK                            x       y       z     vdW  Elec       q    Type
REMARK                         _______ _______ _______ _____ _____    ______ ____
ROOT
ATOM      1  C   UNL     1     -56.204 -38.509 -62.874  0.00  0.00    +0.000 A 
ATOM      2  N   UNL     1     -56.693 -37.209 -62.962  0.00  0.00    +0.000 N 
ATOM      3  C   UNL     1     -57.898 -36.830 -62.338  0.00  0.00    +0.000 A 
ATOM      4  C   UNL     1     -58.203 -35.486 -62.052  0.00  0.00    +0.000 A 
ATOM      5 BR   UNL     1     -56.928 -34.113 -62.345  0.00  0.00    +0.000 Br
ATOM      6  C   UNL     1     -59.439 -35.130 -61.504  0.00  0.00    +0.000 A 
ATOM      7  C   UNL     1     -60.386 -36.113 -61.229  0.00  0.00    +0.000 A 
ATOM      8  C   UNL     1     -60.098 -37.463 -61.501  0.00  0.00    +0.000 A 
ATOM      9 CL   UNL     1     -61.320 -38.597 -61.052  0.00  0.00    +0.000 Cl
ATOM     10  C   UNL     1     -58.854 -37.821 -62.060  0.00  0.00    +0.000 A 
ATOM     11  C   UNL     1     -58.467 -39.211 -62.413  0.00  0.00    +0.000 A 
ATOM     12  O   UNL     1     -59.332 -40.052 -62.641  0.00  0.00    +0.000 OA
ATOM     13  C   UNL     1     -56.983 -39.554 -62.506  0.00  0.00    +0.000 A 
ATOM     14  H   UNL     1     -55.959 -36.489 -63.002  0.00  0.00    +0.000 HD
ENDROOT
BRANCH   1  15
ATOM     15  S   UNL     1     -54.386 -38.558 -63.100  0.00  0.00    +0.000 S 
ATOM     16  O   UNL     1     -54.007 -37.114 -63.287  0.00  0.00    +0.000 OA
BRANCH  15  17
ATOM     17  C   UNL     1     -54.185 -39.419 -64.697  0.00  0.00    +0.000 C 
BRANCH  17  21
ATOM     18  C   UNL     1     -50.469 -43.006 -64.342  0.00  0.00    +0.000 C 
ATOM     19  C   UNL     1     -51.411 -41.892 -64.588  0.00  0.00    +0.000 A 
ATOM     20  C   UNL     1     -52.686 -41.585 -64.170  0.00  0.00    +0.000 A 
ATOM     21  C   UNL     1     -52.981 -40.328 -64.774  0.00  0.00    +0.000 A 
ATOM     22  N   UNL     1     -51.940 -39.929 -65.525  0.00  0.00    +0.000 NA
ATOM     23  O   UNL     1     -50.967 -40.902 -65.403  0.00  0.00    +0.000 OA
ENDBRANCH  17  21
ENDBRANCH  15  17
ENDBRANCH   1  15
BRANCH  13  24
ATOM     24  C   UNL     1     -56.588 -40.968 -62.144  0.00  0.00    +0.000 C 
ATOM     25  O   UNL     1     -56.259 -41.763 -63.023  0.00  0.00    +0.000 OA
BRANCH  24  26
ATOM     26  C   UNL     1     -56.657 -41.442 -60.691  0.00  0.00    +0.000 C 
ATOM     27  C   UNL     1     -55.827 -42.703 -60.467  0.00  0.00    +0.000 C 
ATOM     28  C   UNL     1     -56.232 -40.346 -59.711  0.00  0.00    +0.000 C 
ENDBRANCH  24  26
ENDBRANCH  13  24
TORSDOF 5
