REMARK VINA RESULT:    -5.645     14.437     17.664
REMARK INTER + INTRA:          -8.164
REMARK INTER:                  -7.211
REMARK INTRA:                  -0.953
REMARK UNBOUND:                -0.870
REMARK  Name = 
REMARK  8 active torsions:
REMARK  status: ('A' for Active; 'I' for Inactive)
REMARK    1  A    between atoms: C_1  and  C_2
REMARK    2  A    between atoms: C_4  and  C_5
REMARK    3  A    between atoms: C_5  and  S_6
REMARK    4  A    between atoms: S_6  and  C_8
REMARK    5  A    between atoms: C_20  and  C_21
REMARK    6  A    between atoms: C_21  and  C_23
REMARK    7  A    between atoms: C_23  and  C_24
REMARK    8  A    between atoms: C_23  and  C_25
REMARK                            x       y       z     vdW  Elec       q    Type
REMARK                         _______ _______ _______ _____ _____    ______ ____
ROOT
ATOM      1  C   UNL     1     -57.871 -42.320 -58.732  0.00  0.00    +0.000 A 
ATOM      2  N   UNL     1     -57.893 -42.074 -60.101  0.00  0.00    +0.000 N 
ATOM      3  C   UNL     1     -56.969 -42.680 -60.975  0.00  0.00    +0.000 A 
ATOM      4  C   UNL     1     -57.208 -42.792 -62.358  0.00  0.00    +0.000 A 
ATOM      5 BR   UNL     1     -58.873 -42.275 -63.105  0.00  0.00    +0.000 Br
ATOM      6  C   UNL     1     -56.241 -43.328 -63.214  0.00  0.00    +0.000 A 
ATOM      7  C   UNL     1     -55.023 -43.763 -62.699  0.00  0.00    +0.000 A 
ATOM      8  C   UNL     1     -54.767 -43.667 -61.319  0.00  0.00    +0.000 A 
ATOM      9 CL   UNL     1     -53.252 -44.305 -60.790  0.00  0.00    +0.000 Cl
ATOM     10  C   UNL     1     -55.740 -43.120 -60.457  0.00  0.00    +0.000 A 
ATOM     11  C   UNL     1     -55.554 -42.945 -58.993  0.00  0.00    +0.000 A 
ATOM     12  O   UNL     1     -54.424 -42.862 -58.523  0.00  0.00    +0.000 OA
ATOM     13  C   UNL     1     -56.793 -42.851 -58.108  0.00  0.00    +0.000 A 
ATOM     14  H   UNL     1     -58.836 -41.913 -60.482  0.00  0.00    +0.000 HD
ENDROOT
BRANCH   1  15
ATOM     15  S   UNL     1     -59.517 -42.043 -57.974  0.00  0.00    +0.000 S 
ATOM     16  O   UNL     1     -59.206 -41.299 -56.703  0.00  0.00    +0.000 OA
BRANCH  15  17
ATOM     17  C   UNL     1     -60.066 -43.727 -57.538  0.00  0.00    +0.000 C 
BRANCH  17  21
ATOM     18  C   UNL     1     -61.913 -47.164 -60.940  0.00  0.00    +0.000 C 
ATOM     19  C   UNL     1     -61.385 -46.048 -60.126  0.00  0.00    +0.000 A 
ATOM     20  C   UNL     1     -61.124 -45.856 -58.788  0.00  0.00    +0.000 A 
ATOM     21  C   UNL     1     -60.590 -44.538 -58.700  0.00  0.00    +0.000 A 
ATOM     22  N   UNL     1     -60.559 -43.977 -59.921  0.00  0.00    +0.000 NA
ATOM     23  O   UNL     1     -61.051 -44.920 -60.803  0.00  0.00    +0.000 OA
ENDBRANCH  17  21
ENDBRANCH  15  17
ENDBRANCH   1  15
BRANCH  13  24
ATOM     24  C   UNL     1     -56.664 -43.387 -56.699  0.00  0.00    +0.000 C 
ATOM     25  O   UNL     1     -57.046 -44.526 -56.433  0.00  0.00    +0.000 OA
BRANCH  24  26
ATOM     26  C   UNL     1     -56.120 -42.498 -55.581  0.00  0.00    +0.000 C 
ATOM     27  C   UNL     1     -54.810 -43.038 -55.014  0.00  0.00    +0.000 C 
ATOM     28  C   UNL     1     -55.943 -41.048 -56.038  0.00  0.00    +0.000 C 
ENDBRANCH  24  26
ENDBRANCH  13  24
TORSDOF 5
