REMARK VINA RESULT:    -4.805      4.560      7.308
REMARK INTER + INTRA:          -7.252
REMARK INTER:                  -5.930
REMARK INTRA:                  -1.321
REMARK UNBOUND:                -1.042
REMARK  Name = 
REMARK  8 active torsions:
REMARK  status: ('A' for Active; 'I' for Inactive)
REMARK    1  A    between atoms: C_1  and  C_2
REMARK    2  A    between atoms: C_4  and  C_5
REMARK    3  A    between atoms: C_5  and  S_6
REMARK    4  A    between atoms: S_6  and  C_8
REMARK    5  A    between atoms: C_20  and  C_21
REMARK    6  A    between atoms: C_21  and  C_23
REMARK    7  A    between atoms: C_23  and  C_24
REMARK    8  A    between atoms: C_23  and  C_25
REMARK                            x       y       z     vdW  Elec       q    Type
REMARK                         _______ _______ _______ _____ _____    ______ ____
ROOT
ATOM      1  C   UNL     1     -58.561 -38.909 -62.187  0.00  0.00    +0.000 A 
ATOM      2  N   UNL     1     -59.137 -37.691 -61.841  0.00  0.00    +0.000 N 
ATOM      3  C   UNL     1     -58.551 -36.465 -62.213  0.00  0.00    +0.000 A 
ATOM      4  C   UNL     1     -59.286 -35.265 -62.254  0.00  0.00    +0.000 A 
ATOM      5 BR   UNL     1     -61.161 -35.259 -61.967  0.00  0.00    +0.000 Br
ATOM      6  C   UNL     1     -58.662 -34.050 -62.550  0.00  0.00    +0.000 A 
ATOM      7  C   UNL     1     -57.295 -34.016 -62.813  0.00  0.00    +0.000 A 
ATOM      8  C   UNL     1     -56.544 -35.205 -62.784  0.00  0.00    +0.000 A 
ATOM      9 CL   UNL     1     -54.875 -35.049 -63.197  0.00  0.00    +0.000 Cl
ATOM     10  C   UNL     1     -57.172 -36.431 -62.479  0.00  0.00    +0.000 A 
ATOM     11  C   UNL     1     -56.463 -37.733 -62.391  0.00  0.00    +0.000 A 
ATOM     12  O   UNL     1     -55.259 -37.763 -62.156  0.00  0.00    +0.000 OA
ATOM     13  C   UNL     1     -57.268 -39.016 -62.577  0.00  0.00    +0.000 A 
ATOM     14  H   UNL     1     -60.166 -37.709 -61.812  0.00  0.00    +0.000 HD
ENDROOT
BRANCH   1  15
ATOM     15  S   UNL     1     -59.811 -40.248 -62.252  0.00  0.00    +0.000 S 
ATOM     16  O   UNL     1     -61.099 -39.556 -61.898  0.00  0.00    +0.000 OA
BRANCH  15  17
ATOM     17  C   UNL     1     -59.336 -41.332 -60.862  0.00  0.00    +0.000 C 
BRANCH  17  21
ATOM     18  C   UNL     1     -58.298 -38.424 -56.706  0.00  0.00    +0.000 C 
ATOM     19  C   UNL     1     -58.405 -39.334 -57.868  0.00  0.00    +0.000 A 
ATOM     20  C   UNL     1     -59.410 -39.689 -58.738  0.00  0.00    +0.000 A 
ATOM     21  C   UNL     1     -58.806 -40.602 -59.650  0.00  0.00    +0.000 A 
ATOM     22  N   UNL     1     -57.517 -40.790 -59.318  0.00  0.00    +0.000 NA
ATOM     23  O   UNL     1     -57.272 -39.997 -58.214  0.00  0.00    +0.000 OA
ENDBRANCH  17  21
ENDBRANCH  15  17
ENDBRANCH   1  15
BRANCH  13  24
ATOM     24  C   UNL     1     -56.542 -40.191 -63.193  0.00  0.00    +0.000 C 
ATOM     25  O   UNL     1     -56.262 -41.174 -62.508  0.00  0.00    +0.000 OA
BRANCH  24  26
ATOM     26  C   UNL     1     -56.092 -40.141 -64.654  0.00  0.00    +0.000 C 
ATOM     27  C   UNL     1     -54.638 -40.580 -64.813  0.00  0.00    +0.000 C 
ATOM     28  C   UNL     1     -57.000 -40.975 -65.561  0.00  0.00    +0.000 C 
ENDBRANCH  24  26
ENDBRANCH  13  24
TORSDOF 5
