REMARK VINA RESULT:    -5.385     14.481     17.492
REMARK INTER + INTRA:          -7.574
REMARK INTER:                  -6.847
REMARK INTRA:                  -0.727
REMARK UNBOUND:                -0.930
REMARK  Name = 
REMARK  6 active torsions:
REMARK  status: ('A' for Active; 'I' for Inactive)
REMARK    1  A    between atoms: C_1  and  C_2
REMARK    2  A    between atoms: C_2  and  C_4
REMARK    3  A    between atoms: C_5  and  S_6
REMARK    4  A    between atoms: S_6  and  C_8
REMARK    5  A    between atoms: C_8  and  C_9
REMARK    6  A    between atoms: C_11  and  C_12
REMARK                            x       y       z     vdW  Elec       q    Type
REMARK                         _______ _______ _______ _____ _____    ______ ____
ROOT
ATOM      1  C   UNL     1     -47.586 -24.641 -64.885  0.00  0.00    +0.000 A 
ATOM      2  C   UNL     1     -47.362 -25.767 -64.169  0.00  0.00    +0.000 A 
ATOM      3  N   UNL     1     -48.256 -26.273 -63.241  0.00  0.00    +0.000 N 
ATOM      4  C   UNL     1     -49.318 -25.489 -62.750  0.00  0.00    +0.000 A 
ATOM      5  C   UNL     1     -50.060 -25.894 -61.628  0.00  0.00    +0.000 A 
ATOM      6 BR   UNL     1     -49.626 -27.489 -60.694  0.00  0.00    +0.000 Br
ATOM      7  C   UNL     1     -51.123 -25.124 -61.162  0.00  0.00    +0.000 A 
ATOM      8  C   UNL     1     -51.458 -23.940 -61.820  0.00  0.00    +0.000 A 
ATOM      9  C   UNL     1     -50.752 -23.535 -62.963  0.00  0.00    +0.000 A 
ATOM     10 CL   UNL     1     -51.212 -22.022 -63.649  0.00  0.00    +0.000 Cl
ATOM     11  C   UNL     1     -49.700 -24.330 -63.445  0.00  0.00    +0.000 A 
ATOM     12  C   UNL     1     -48.944 -24.031 -64.692  0.00  0.00    +0.000 A 
ATOM     13  O   UNL     1     -49.431 -23.330 -65.572  0.00  0.00    +0.000 OA
ATOM     14  H   UNL     1     -47.822 -26.870 -62.531  0.00  0.00    +0.000 HD
ENDROOT
BRANCH   1  16
ATOM     15  C   UNL     1     -45.809 -22.803 -65.370  0.00  0.00    +0.000 C 
ATOM     16  C   UNL     1     -46.615 -24.002 -65.829  0.00  0.00    +0.000 C 
ATOM     17  O   UNL     1     -46.456 -24.441 -66.968  0.00  0.00    +0.000 OA
ENDBRANCH   1  16
BRANCH   2  18
ATOM     18  S   UNL     1     -45.769 -26.654 -64.248  0.00  0.00    +0.000 S 
ATOM     19  O   UNL     1     -44.858 -25.798 -63.408  0.00  0.00    +0.000 OA
BRANCH  18  20
ATOM     20  C   UNL     1     -46.238 -28.083 -63.201  0.00  0.00    +0.000 C 
BRANCH  20  21
ATOM     21  C   UNL     1     -45.482 -29.338 -63.494  0.00  0.00    +0.000 A 
ATOM     22  C   UNL     1     -45.761 -30.690 -63.168  0.00  0.00    +0.000 A 
ATOM     23  C   UNL     1     -44.764 -31.411 -63.778  0.00  0.00    +0.000 A 
ATOM     24  C   UNL     1     -44.419 -32.842 -63.874  0.00  0.00    +0.000 C 
ATOM     25  O   UNL     1     -43.943 -30.555 -64.440  0.00  0.00    +0.000 OA
ATOM     26  N   UNL     1     -44.390 -29.261 -64.272  0.00  0.00    +0.000 NA
ENDBRANCH  20  21
ENDBRANCH  18  20
ENDBRANCH   2  18
TORSDOF 4
