REMARK  Name = 
REMARK  6 active torsions:
REMARK  status: ('A' for Active; 'I' for Inactive)
REMARK    1  A    between atoms: C_1  and  C_2
REMARK    2  A    between atoms: C_2  and  C_4
REMARK    3  A    between atoms: C_5  and  S_6
REMARK    4  A    between atoms: S_6  and  C_8
REMARK    5  A    between atoms: C_8  and  C_9
REMARK    6  A    between atoms: C_11  and  C_12
REMARK                            x       y       z     vdW  Elec       q    Type
REMARK                         _______ _______ _______ _____ _____    ______ ____
ROOT
ATOM      1  C   UNL     1       2.987   0.868   1.002  0.00  0.00    +0.000 A 
ATOM      2  C   UNL     1       2.768   0.830   2.335  0.00  0.00    +0.000 A 
ATOM      3  N   UNL     1       3.438   1.645   3.226  0.00  0.00    +0.000 N 
ATOM      4  C   UNL     1       4.478   2.508   2.843  0.00  0.00    +0.000 A 
ATOM      5  C   UNL     1       5.106   3.344   3.781  0.00  0.00    +0.000 A 
ATOM      6 BR   UNL     1       4.621   3.286   5.618  0.00  0.00    +0.000 Br
ATOM      7  C   UNL     1       6.098   4.246   3.392  0.00  0.00    +0.000 A 
ATOM      8  C   UNL     1       6.477   4.319   2.057  0.00  0.00    +0.000 A 
ATOM      9  C   UNL     1       5.863   3.506   1.101  0.00  0.00    +0.000 A 
ATOM     10 CL   UNL     1       6.464   3.689  -0.511  0.00  0.00    +0.000 Cl
ATOM     11  C   UNL     1       4.837   2.620   1.490  0.00  0.00    +0.000 A 
ATOM     12  C   UNL     1       4.078   1.792   0.524  0.00  0.00    +0.000 A 
ATOM     13  O   UNL     1       4.345   1.857  -0.668  0.00  0.00    +0.000 OA
ATOM     14  H   UNL     1       3.377   1.411   4.214  0.00  0.00    +0.000 HD
ENDROOT
BRANCH   1  16
ATOM     15  C   UNL     1       2.152   0.599  -1.444  0.00  0.00    +0.000 C 
ATOM     16  C   UNL     1       2.224   0.079  -0.029  0.00  0.00    +0.000 C 
ATOM     17  O   UNL     1       1.636  -0.954   0.264  0.00  0.00    +0.000 OA
ENDBRANCH   1  16
BRANCH   2  18
ATOM     18  S   UNL     1       1.636  -0.406   3.077  0.00  0.00    +0.000 S 
ATOM     19  O   UNL     1       2.518  -1.188   4.013  0.00  0.00    +0.000 OA
BRANCH  18  20
ATOM     20  C   UNL     1       0.627   0.689   4.140  0.00  0.00    +0.000 C 
BRANCH  20  21
ATOM     21  C   UNL     1      -0.414  -0.067   4.899  0.00  0.00    +0.000 A 
ATOM     22  C   UNL     1      -0.247  -1.129   5.825  0.00  0.00    +0.000 A 
ATOM     23  C   UNL     1      -1.518  -1.400   6.279  0.00  0.00    +0.000 A 
ATOM     24  C   UNL     1      -2.094  -2.363   7.239  0.00  0.00    +0.000 C 
ATOM     25  O   UNL     1      -2.392  -0.553   5.671  0.00  0.00    +0.000 OA
ATOM     26  N   UNL     1      -1.702   0.290   4.814  0.00  0.00    +0.000 NA
ENDBRANCH  20  21
ENDBRANCH  18  20
ENDBRANCH   2  18
TORSDOF 4
