=
 OpenBabel09152518023D

 28 30  0  0  0  0  0  0  0  0999 V2000
  -55.4430  -41.7490  -63.0180 C   0  0  0  0  0  0  0  0  0  0  0  0
  -54.7640  -42.9630  -63.0580 N   0  0  0  0  0  0  0  0  0  0  0  0
  -53.3990  -43.0340  -63.3990 C   0  0  0  0  0  0  0  0  0  0  0  0
  -52.5970  -44.1390  -63.0540 C   0  0  0  0  0  0  0  0  0  0  0  0
  -53.2740  -45.5310  -61.9590 Br  0  0  0  0  0  0  0  0  0  0  0  0
  -51.2660  -44.2200  -63.4730 C   0  0  0  0  0  3  0  0  0  0  0  0
  -50.7160  -43.1960  -64.2390 C   0  0  0  0  0  3  0  0  0  0  0  0
  -51.4970  -42.0800  -64.5890 C   0  0  0  0  0  0  0  0  0  0  0  0
  -50.6850  -40.8430  -65.4790 Cl  0  0  0  0  0  0  0  0  0  0  0  0
  -52.8430  -42.0020  -64.1720 C   0  0  0  0  0  0  0  0  0  0  0  0
  -53.7590  -40.8840  -64.5160 C   0  0  0  0  0  0  0  0  0  0  0  0
  -53.5450  -40.1970  -65.5100 O   0  0  0  0  0  0  0  0  0  0  0  0
  -54.9690  -40.6330  -63.6210 C   0  0  0  0  0  0  0  0  0  0  0  0
  -55.0920  -43.6480  -62.3630 H   0  0  0  0  0  0  0  0  0  0  0  0
  -56.8870  -41.8240  -61.8920 S   0  0  2  0  0  0  0  0  0  0  0  0
  -56.7470  -43.1610  -61.2170 O   0  0  0  0  0  0  0  0  0  0  0  0
  -58.3070  -41.9020  -63.0370 C   0  0  0  0  0  2  0  0  0  0  0  0
  -57.3780  -42.8930  -68.0320 C   0  0  0  0  0  1  0  0  0  0  0  0
  -57.5880  -42.8070  -66.5710 C   0  0  0  0  0  0  0  0  0  0  0  0
  -57.8820  -41.7930  -65.6870 C   0  0  0  0  0  3  0  0  0  0  0  0
  -57.9750  -42.4270  -64.4140 C   0  0  0  0  0  0  0  0  0  0  0  0
  -57.7270  -43.7420  -64.5410 N   0  0  0  0  0  0  0  0  0  0  0  0
  -57.4910  -43.9730  -65.8830 O   0  0  0  0  0  0  0  0  0  0  0  0
  -55.4400  -39.2000  -63.5020 C   0  0  0  0  0  0  0  0  0  0  0  0
  -56.6030  -38.9060  -63.7760 O   0  0  0  0  0  0  0  0  0  0  0  0
  -54.4600  -38.0960  -63.1040 C   0  0  0  0  0  3  0  0  0  0  0  0
  -54.3620  -37.0130  -64.1760 C   0  0  0  0  0  1  0  0  0  0  0  0
  -54.8190  -37.4730  -61.7520 C   0  0  0  0  0  1  0  0  0  0  0  0
  1 15  1  0  0  0  0
  2  1  1  0  0  0  0
  2 14  1  0  0  0  0
  3  2  1  0  0  0  0
  3  4  1  0  0  0  0
  4  5  1  0  0  0  0
  6  4  2  0  0  0  0
  7  6  1  0  0  0  0
  8  7  2  0  0  0  0
  8 10  1  0  0  0  0
  9  8  1  0  0  0  0
 10  3  2  0  0  0  0
 11 10  1  0  0  0  0
 11 13  1  0  0  0  0
 12 11  2  0  0  0  0
 13 24  1  0  0  0  0
 13  1  2  0  0  0  0
 15 16  2  1  0  0  0
 17 15  1  0  0  0  0
 18 19  1  0  0  0  0
 19 23  1  0  0  0  0
 19 20  2  0  0  0  0
 20 21  1  0  0  0  0
 21 17  1  0  0  0  0
 22 21  2  0  0  0  0
 23 22  1  0  0  0  0
 24 26  1  0  0  0  0
 25 24  2  0  0  0  0
 26 28  1  0  0  0  0
 27 26  1  0  0  0  0
M  END
>  <MODEL>
1

>  <REMARK>
 VINA RESULT:    -6.961      0.000      0.000
 INTER + INTRA:         -10.234
 INTER:                  -8.996
 INTRA:                  -1.238
 UNBOUND:                -1.238
  Name = 
  8 active torsions:
  status: ('A' for Active; 'I' for Inactive)
    1  A    between atoms: C_1  and  C_2
    2  A    between atoms: C_4  and  C_5
    3  A    between atoms: C_5  and  S_6
    4  A    between atoms: S_6  and  C_8
    5  A    between atoms: C_20  and  C_21
    6  A    between atoms: C_21  and  C_23
    7  A    between atoms: C_23  and  C_24
    8  A    between atoms: C_23  and  C_25
                            x       y       z     vdW  Elec       q    Type
                         _______ _______ _______ _____ _____    ______ ____

>  <TORSDO>
F 5

$$$$
