REMARK VINA RESULT:    -5.610      3.382      3.817
REMARK INTER + INTRA:          -7.725
REMARK INTER:                  -6.788
REMARK INTRA:                  -0.937
REMARK UNBOUND:                -0.804
REMARK  Name = 
REMARK  6 active torsions:
REMARK  status: ('A' for Active; 'I' for Inactive)
REMARK    1  A    between atoms: C_1  and  C_2
REMARK    2  A    between atoms: C_2  and  C_4
REMARK    3  A    between atoms: C_5  and  S_6
REMARK    4  A    between atoms: S_6  and  C_8
REMARK    5  A    between atoms: C_8  and  C_9
REMARK    6  A    between atoms: C_11  and  C_12
REMARK                            x       y       z     vdW  Elec       q    Type
REMARK                         _______ _______ _______ _____ _____    ______ ____
ROOT
ATOM      1  C   UNL     1     -58.943 -38.323 -61.839  0.00  0.00    +0.000 A 
ATOM      2  C   UNL     1     -58.114 -39.287 -62.297  0.00  0.00    +0.000 A 
ATOM      3  N   UNL     1     -56.866 -39.023 -62.821  0.00  0.00    +0.000 N 
ATOM      4  C   UNL     1     -56.363 -37.723 -62.990  0.00  0.00    +0.000 A 
ATOM      5  C   UNL     1     -55.051 -37.511 -63.451  0.00  0.00    +0.000 A 
ATOM      6 BR   UNL     1     -53.935 -38.974 -63.928  0.00  0.00    +0.000 Br
ATOM      7  C   UNL     1     -54.525 -36.226 -63.557  0.00  0.00    +0.000 A 
ATOM      8  C   UNL     1     -55.309 -35.131 -63.204  0.00  0.00    +0.000 A 
ATOM      9  C   UNL     1     -56.610 -35.315 -62.723  0.00  0.00    +0.000 A 
ATOM     10 CL   UNL     1     -57.460 -33.864 -62.319  0.00  0.00    +0.000 Cl
ATOM     11  C   UNL     1     -57.133 -36.616 -62.588  0.00  0.00    +0.000 A 
ATOM     12  C   UNL     1     -58.492 -36.902 -62.054  0.00  0.00    +0.000 A 
ATOM     13  O   UNL     1     -59.267 -35.983 -61.820  0.00  0.00    +0.000 OA
ATOM     14  H   UNL     1     -56.471 -39.738 -63.430  0.00  0.00    +0.000 HD
ENDROOT
BRANCH   1  16
ATOM     15  C   UNL     1     -61.510 -38.614 -62.027  0.00  0.00    +0.000 C 
ATOM     16  C   UNL     1     -60.265 -38.568 -61.172  0.00  0.00    +0.000 C 
ATOM     17  O   UNL     1     -60.360 -38.695 -59.949  0.00  0.00    +0.000 OA
ENDBRANCH   1  16
BRANCH   2  18
ATOM     18  S   UNL     1     -58.647 -41.034 -62.377  0.00  0.00    +0.000 S 
ATOM     19  O   UNL     1     -59.512 -41.082 -63.608  0.00  0.00    +0.000 OA
BRANCH  18  20
ATOM     20  C   UNL     1     -57.056 -41.801 -62.852  0.00  0.00    +0.000 C 
BRANCH  20  21
ATOM     21  C   UNL     1     -56.966 -42.035 -64.323  0.00  0.00    +0.000 A 
ATOM     22  C   UNL     1     -57.280 -43.204 -65.062  0.00  0.00    +0.000 A 
ATOM     23  C   UNL     1     -57.107 -42.841 -66.375  0.00  0.00    +0.000 A 
ATOM     24  C   UNL     1     -57.266 -43.532 -67.668  0.00  0.00    +0.000 C 
ATOM     25  O   UNL     1     -56.711 -41.541 -66.427  0.00  0.00    +0.000 OA
ATOM     26  N   UNL     1     -56.628 -41.030 -65.144  0.00  0.00    +0.000 NA
ENDBRANCH  20  21
ENDBRANCH  18  20
ENDBRANCH   2  18
TORSDOF 4
