REMARK VINA RESULT:    -6.334      3.310      5.630
REMARK INTER + INTRA:          -8.884
REMARK INTER:                  -7.640
REMARK INTRA:                  -1.244
REMARK UNBOUND:                -0.699
REMARK  Name = 
REMARK  8 active torsions:
REMARK  status: ('A' for Active; 'I' for Inactive)
REMARK    1  A    between atoms: C_1  and  C_2
REMARK    2  A    between atoms: C_4  and  C_5
REMARK    3  A    between atoms: C_5  and  S_6
REMARK    4  A    between atoms: S_6  and  C_8
REMARK    5  A    between atoms: C_20  and  C_21
REMARK    6  A    between atoms: C_21  and  C_23
REMARK    7  A    between atoms: C_23  and  C_24
REMARK    8  A    between atoms: C_23  and  C_25
REMARK                            x       y       z     vdW  Elec       q    Type
REMARK                         _______ _______ _______ _____ _____    ______ ____
ROOT
ATOM      1  C   UNL     1     -57.675 -40.659 -63.084  0.00  0.00    +0.000 A 
ATOM      2  N   UNL     1     -57.141 -39.423 -62.732  0.00  0.00    +0.000 N 
ATOM      3  C   UNL     1     -55.987 -38.912 -63.357  0.00  0.00    +0.000 A 
ATOM      4  C   UNL     1     -55.669 -37.541 -63.338  0.00  0.00    +0.000 A 
ATOM      5 BR   UNL     1     -56.871 -36.271 -62.603  0.00  0.00    +0.000 Br
ATOM      6  C   UNL     1     -54.477 -37.071 -63.898  0.00  0.00    +0.000 A 
ATOM      7  C   UNL     1     -53.589 -37.964 -64.490  0.00  0.00    +0.000 A 
ATOM      8  C   UNL     1     -53.891 -39.338 -64.526  0.00  0.00    +0.000 A 
ATOM      9 CL   UNL     1     -52.748 -40.337 -65.349  0.00  0.00    +0.000 Cl
ATOM     10  C   UNL     1     -55.090 -39.813 -63.955  0.00  0.00    +0.000 A 
ATOM     11  C   UNL     1     -55.484 -41.244 -63.912  0.00  0.00    +0.000 A 
ATOM     12  O   UNL     1     -54.628 -42.121 -63.977  0.00  0.00    +0.000 OA
ATOM     13  C   UNL     1     -56.964 -41.589 -63.765  0.00  0.00    +0.000 A 
ATOM     14  H   UNL     1     -57.847 -38.729 -62.450  0.00  0.00    +0.000 HD
ENDROOT
BRANCH   1  15
ATOM     15  S   UNL     1     -59.466 -40.750 -62.705  0.00  0.00    +0.000 S 
ATOM     16  O   UNL     1     -59.839 -39.326 -62.393  0.00  0.00    +0.000 OA
BRANCH  15  17
ATOM     17  C   UNL     1     -59.518 -41.713 -61.156  0.00  0.00    +0.000 C 
BRANCH  17  21
ATOM     18  C   UNL     1     -55.153 -42.171 -58.412  0.00  0.00    +0.000 C 
ATOM     19  C   UNL     1     -56.400 -41.842 -59.136  0.00  0.00    +0.000 A 
ATOM     20  C   UNL     1     -57.218 -42.508 -60.019  0.00  0.00    +0.000 A 
ATOM     21  C   UNL     1     -58.278 -41.598 -60.302  0.00  0.00    +0.000 A 
ATOM     22  N   UNL     1     -58.079 -40.448 -59.635  0.00  0.00    +0.000 NA
ATOM     23  O   UNL     1     -56.914 -40.606 -58.910  0.00  0.00    +0.000 OA
ENDBRANCH  17  21
ENDBRANCH  15  17
ENDBRANCH   1  15
BRANCH  13  24
ATOM     24  C   UNL     1     -57.432 -42.870 -64.419  0.00  0.00    +0.000 C 
ATOM     25  O   UNL     1     -57.432 -43.924 -63.784  0.00  0.00    +0.000 OA
BRANCH  24  26
ATOM     26  C   UNL     1     -57.845 -42.880 -65.891  0.00  0.00    +0.000 C 
ATOM     27  C   UNL     1     -58.993 -41.911 -66.163  0.00  0.00    +0.000 C 
ATOM     28  C   UNL     1     -56.665 -42.580 -66.819  0.00  0.00    +0.000 C 
ENDBRANCH  24  26
ENDBRANCH  13  24
TORSDOF 5
