=
 OpenBabel09152517493D

 28 30  0  0  0  0  0  0  0  0999 V2000
  -55.8030  -41.5730  -63.4570 C   0  0  0  0  0  0  0  0  0  0  0  0
  -54.4820  -41.2140  -63.7050 N   0  0  0  0  0  0  0  0  0  0  0  0
  -53.4480  -42.1700  -63.7230 C   0  0  0  0  0  0  0  0  0  0  0  0
  -52.2170  -41.9300  -64.3620 C   0  0  0  0  0  0  0  0  0  0  0  0
  -51.9390  -40.3560  -65.3840 Br  0  0  0  0  0  0  0  0  0  0  0  0
  -51.1790  -42.8640  -64.2980 C   0  0  0  0  0  3  0  0  0  0  0  0
  -51.3580  -44.0540  -63.5980 C   0  0  0  0  0  3  0  0  0  0  0  0
  -52.5830  -44.3160  -62.9580 C   0  0  0  0  0  0  0  0  0  0  0  0
  -52.7120  -45.8540  -62.1830 Cl  0  0  0  0  0  0  0  0  0  0  0  0
  -53.6280  -43.3700  -63.0170 C   0  0  0  0  0  0  0  0  0  0  0  0
  -54.9440  -43.5380  -62.3490 C   0  0  0  0  0  0  0  0  0  0  0  0
  -55.0510  -44.2800  -61.3770 O   0  0  0  0  0  0  0  0  0  0  0  0
  -56.1390  -42.7540  -62.8850 C   0  0  0  0  0  0  0  0  0  0  0  0
  -54.3800  -40.4250  -64.3590 H   0  0  0  0  0  0  0  0  0  0  0  0
  -56.9750  -40.3690  -64.1890 S   0  0  2  0  0  0  0  0  0  0  0  0
  -57.7250  -39.8300  -63.0010 O   0  0  0  0  0  0  0  0  0  0  0  0
  -58.1080  -41.4220  -65.1570 C   0  0  0  0  0  2  0  0  0  0  0  0
  -55.6890  -42.8870  -69.4940 C   0  0  0  0  0  1  0  0  0  0  0  0
  -56.4240  -42.6690  -68.2280 C   0  0  0  0  0  0  0  0  0  0  0  0
  -56.6380  -41.5920  -67.4000 C   0  0  0  0  0  3  0  0  0  0  0  0
  -57.4750  -42.0870  -66.3580 C   0  0  0  0  0  0  0  0  0  0  0  0
  -57.7210  -43.3940  -66.5530 N   0  0  0  0  0  0  0  0  0  0  0  0
  -57.0690  -43.7500  -67.7190 O   0  0  0  0  0  0  0  0  0  0  0  0
  -57.4970  -43.4040  -62.7440 C   0  0  0  0  0  0  0  0  0  0  0  0
  -57.7950  -44.3720  -63.4420 O   0  0  0  0  0  0  0  0  0  0  0  0
  -58.5350  -42.8240  -61.7810 C   0  0  0  0  0  3  0  0  0  0  0  0
  -59.6630  -43.8140  -61.5020 C   0  0  0  0  0  1  0  0  0  0  0  0
  -57.9000  -42.3580  -60.4680 C   0  0  0  0  0  1  0  0  0  0  0  0
  1 13  2  0  0  0  0
  2  1  1  0  0  0  0
  3  2  1  0  0  0  0
  3 10  1  0  0  0  0
  4  6  1  0  0  0  0
  4  3  2  0  0  0  0
  5  4  1  0  0  0  0
  6  7  2  0  0  0  0
  7  8  1  0  0  0  0
  8  9  1  0  0  0  0
 10  8  2  0  0  0  0
 10 11  1  0  0  0  0
 11 12  2  0  0  0  0
 13 24  1  0  0  0  0
 13 11  1  0  0  0  0
 14  2  1  0  0  0  0
 15  1  1  0  0  0  0
 15 16  2  1  0  0  0
 17 15  1  0  0  0  0
 18 19  1  0  0  0  0
 19 23  1  0  0  0  0
 19 20  2  0  0  0  0
 20 21  1  0  0  0  0
 21 17  1  0  0  0  0
 22 21  2  0  0  0  0
 23 22  1  0  0  0  0
 24 26  1  0  0  0  0
 25 24  2  0  0  0  0
 26 27  1  0  0  0  0
 26 28  1  0  0  0  0
M  END
>  <MODEL>
1

>  <REMARK>
 VINA RESULT:    -7.770      0.000      0.000
 INTER + INTRA:         -10.929
 INTER:                 -10.042
 INTRA:                  -0.887
 UNBOUND:                -0.887
  Name = 
  8 active torsions:
  status: ('A' for Active; 'I' for Inactive)
    1  A    between atoms: C_1  and  C_2
    2  A    between atoms: C_4  and  C_5
    3  A    between atoms: C_5  and  S_6
    4  A    between atoms: S_6  and  C_8
    5  A    between atoms: C_20  and  C_21
    6  A    between atoms: C_21  and  C_23
    7  A    between atoms: C_23  and  C_24
    8  A    between atoms: C_23  and  C_25
                            x       y       z     vdW  Elec       q    Type
                         _______ _______ _______ _____ _____    ______ ____

>  <TORSDO>
F 5

$$$$
