REMARK VINA RESULT:    -7.599      9.959     12.638
REMARK INTER + INTRA:         -10.714
REMARK INTER:                  -9.584
REMARK INTRA:                  -1.130
REMARK UNBOUND:                -0.894
REMARK  Name = 
REMARK  8 active torsions:
REMARK  status: ('A' for Active; 'I' for Inactive)
REMARK    1  A    between atoms: C_1  and  C_2
REMARK    2  A    between atoms: C_4  and  C_5
REMARK    3  A    between atoms: C_5  and  S_6
REMARK    4  A    between atoms: S_6  and  C_8
REMARK    5  A    between atoms: C_20  and  C_21
REMARK    6  A    between atoms: C_21  and  C_23
REMARK    7  A    between atoms: C_23  and  C_24
REMARK    8  A    between atoms: C_23  and  C_25
REMARK                            x       y       z     vdW  Elec       q    Type
REMARK                         _______ _______ _______ _____ _____    ______ ____
ROOT
ATOM      1  C   UNL     1     -55.525 -42.032 -62.876  0.00  0.00    +0.000 A 
ATOM      2  N   UNL     1     -54.814 -43.229 -62.892  0.00  0.00    +0.000 N 
ATOM      3  C   UNL     1     -53.445 -43.274 -63.232  0.00  0.00    +0.000 A 
ATOM      4  C   UNL     1     -52.624 -44.366 -62.890  0.00  0.00    +0.000 A 
ATOM      5 CL   UNL     1     -53.224 -45.640 -61.888  0.00  0.00    +0.000 Cl
ATOM      6  C   UNL     1     -51.301 -44.437 -63.326  0.00  0.00    +0.000 A 
ATOM      7  C   UNL     1     -50.778 -43.407 -64.112  0.00  0.00    +0.000 A 
ATOM      8  C   UNL     1     -51.574 -42.305 -64.450  0.00  0.00    +0.000 A 
ATOM      9 CL   UNL     1     -50.797 -41.067 -65.367  0.00  0.00    +0.000 Cl
ATOM     10  C   UNL     1     -52.908 -42.246 -64.020  0.00  0.00    +0.000 A 
ATOM     11  C   UNL     1     -53.865 -41.170 -64.384  0.00  0.00    +0.000 A 
ATOM     12  O   UNL     1     -53.711 -40.565 -65.439  0.00  0.00    +0.000 OA
ATOM     13  C   UNL     1     -55.065 -40.902 -63.485  0.00  0.00    +0.000 A 
ATOM     14  H   UNL     1     -55.108 -43.892 -62.164  0.00  0.00    +0.000 HD
ENDROOT
BRANCH   1  15
ATOM     15  S   UNL     1     -56.974 -42.135 -61.749  0.00  0.00    +0.000 S 
ATOM     16  O   UNL     1     -56.453 -42.914 -60.572  0.00  0.00    +0.000 OA
BRANCH  15  17
ATOM     17  C   UNL     1     -58.127 -43.233 -62.669  0.00  0.00    +0.000 C 
BRANCH  17  21
ATOM     18  C   UNL     1     -57.970 -42.772 -67.817  0.00  0.00    +0.000 C 
ATOM     19  C   UNL     1     -58.155 -42.750 -66.350  0.00  0.00    +0.000 A 
ATOM     20  C   UNL     1     -57.762 -43.554 -65.306  0.00  0.00    +0.000 A 
ATOM     21  C   UNL     1     -58.253 -42.908 -64.137  0.00  0.00    +0.000 A 
ATOM     22  N   UNL     1     -58.930 -41.798 -64.478  0.00  0.00    +0.000 NA
ATOM     23  O   UNL     1     -58.861 -41.702 -65.854  0.00  0.00    +0.000 OA
ENDBRANCH  17  21
ENDBRANCH  15  17
ENDBRANCH   1  15
BRANCH  13  24
ATOM     24  C   UNL     1     -55.499 -39.452 -63.422  0.00  0.00    +0.000 C 
ATOM     25  O   UNL     1     -56.643 -39.137 -63.774  0.00  0.00    +0.000 OA
BRANCH  24  26
ATOM     26  C   UNL     1     -54.534 -38.332 -63.083  0.00  0.00    +0.000 C 
ATOM     27  C   UNL     1     -54.497 -37.326 -64.219  0.00  0.00    +0.000 C 
ATOM     28  C   UNL     1     -54.849 -37.709 -61.728  0.00  0.00    +0.000 C 
ENDBRANCH  24  26
ENDBRANCH  13  24
TORSDOF 5
