REMARK VINA RESULT:    -6.035      3.442      4.929
REMARK INTER + INTRA:          -8.183
REMARK INTER:                  -7.091
REMARK INTRA:                  -1.091
REMARK UNBOUND:                -0.736
REMARK  Name = 
REMARK  6 active torsions:
REMARK  status: ('A' for Active; 'I' for Inactive)
REMARK    1  A    between atoms: C_1  and  C_2
REMARK    2  A    between atoms: C_2  and  C_4
REMARK    3  A    between atoms: C_5  and  S_6
REMARK    4  A    between atoms: S_6  and  C_8
REMARK    5  A    between atoms: C_8  and  C_9
REMARK    6  A    between atoms: C_11  and  C_12
REMARK                            x       y       z     vdW  Elec       q    Type
REMARK                         _______ _______ _______ _____ _____    ______ ____
ROOT
ATOM      1  C   UNL     1     -53.560 -41.578 -79.080  0.00  0.00    +0.000 A 
ATOM      2  C   UNL     1     -54.773 -42.172 -79.131  0.00  0.00    +0.000 A 
ATOM      3  N   UNL     1     -55.086 -43.173 -80.036  0.00  0.00    +0.000 N 
ATOM      4  C   UNL     1     -54.268 -43.446 -81.147  0.00  0.00    +0.000 A 
ATOM      5  C   UNL     1     -54.708 -44.292 -82.180  0.00  0.00    +0.000 A 
ATOM      6 BR   UNL     1     -56.452 -45.043 -82.150  0.00  0.00    +0.000 Br
ATOM      7  C   UNL     1     -53.881 -44.586 -83.261  0.00  0.00    +0.000 A 
ATOM      8  C   UNL     1     -52.600 -44.040 -83.318  0.00  0.00    +0.000 A 
ATOM      9  C   UNL     1     -52.132 -43.219 -82.284  0.00  0.00    +0.000 A 
ATOM     10 CL   UNL     1     -50.555 -42.549 -82.502  0.00  0.00    +0.000 Cl
ATOM     11  C   UNL     1     -52.956 -42.944 -81.182  0.00  0.00    +0.000 A 
ATOM     12  C   UNL     1     -52.519 -42.149 -80.003  0.00  0.00    +0.000 A 
ATOM     13  O   UNL     1     -51.330 -41.995 -79.753  0.00  0.00    +0.000 OA
ATOM     14  H   UNL     1     -56.087 -43.261 -80.226  0.00  0.00    +0.000 HD
ENDROOT
BRANCH   1  16
ATOM     15  C   UNL     1     -52.664 -40.712 -76.789  0.00  0.00    +0.000 C 
ATOM     16  C   UNL     1     -53.192 -40.429 -78.184  0.00  0.00    +0.000 C 
ATOM     17  O   UNL     1     -53.314 -39.267 -78.563  0.00  0.00    +0.000 OA
ENDBRANCH   1  16
BRANCH   2  18
ATOM     18  S   UNL     1     -56.168 -41.609 -78.101  0.00  0.00    +0.000 S 
ATOM     19  O   UNL     1     -57.325 -41.601 -79.062  0.00  0.00    +0.000 OA
BRANCH  18  20
ATOM     20  C   UNL     1     -56.354 -43.124 -77.080  0.00  0.00    +0.000 C 
BRANCH  20  21
ATOM     21  C   UNL     1     -55.250 -43.352 -76.098  0.00  0.00    +0.000 A 
ATOM     22  C   UNL     1     -54.107 -44.191 -76.163  0.00  0.00    +0.000 A 
ATOM     23  C   UNL     1     -53.398 -43.904 -75.021  0.00  0.00    +0.000 A 
ATOM     24  C   UNL     1     -52.125 -44.376 -74.442  0.00  0.00    +0.000 C 
ATOM     25  O   UNL     1     -54.062 -42.954 -74.314  0.00  0.00    +0.000 OA
ATOM     26  N   UNL     1     -55.218 -42.602 -74.984  0.00  0.00    +0.000 NA
ENDBRANCH  20  21
ENDBRANCH  18  20
ENDBRANCH   2  18
TORSDOF 4
