REMARK VINA RESULT:    -6.434      3.553      6.051
REMARK INTER + INTRA:          -8.654
REMARK INTER:                  -7.949
REMARK INTRA:                  -0.706
REMARK UNBOUND:                -0.716
REMARK  Name = 
REMARK  6 active torsions:
REMARK  status: ('A' for Active; 'I' for Inactive)
REMARK    1  A    between atoms: C_1  and  C_2
REMARK    2  A    between atoms: C_2  and  C_4
REMARK    3  A    between atoms: C_5  and  S_6
REMARK    4  A    between atoms: S_6  and  C_8
REMARK    5  A    between atoms: C_8  and  C_9
REMARK    6  A    between atoms: C_11  and  C_12
REMARK                            x       y       z     vdW  Elec       q    Type
REMARK                         _______ _______ _______ _____ _____    ______ ____
ROOT
ATOM      1  C   UNL     1     -56.668 -41.837 -76.832  0.00  0.00    +0.000 A 
ATOM      2  C   UNL     1     -55.402 -41.617 -77.251  0.00  0.00    +0.000 A 
ATOM      3  N   UNL     1     -55.062 -41.407 -78.574  0.00  0.00    +0.000 N 
ATOM      4  C   UNL     1     -55.978 -41.565 -79.628  0.00  0.00    +0.000 A 
ATOM      5  C   UNL     1     -55.572 -41.398 -80.964  0.00  0.00    +0.000 A 
ATOM      6 BR   UNL     1     -53.757 -41.040 -81.400  0.00  0.00    +0.000 Br
ATOM      7  C   UNL     1     -56.486 -41.499 -82.010  0.00  0.00    +0.000 A 
ATOM      8  C   UNL     1     -57.825 -41.755 -81.728  0.00  0.00    +0.000 A 
ATOM      9  C   UNL     1     -58.258 -41.901 -80.408  0.00  0.00    +0.000 A 
ATOM     10 CL   UNL     1     -59.947 -42.227 -80.219  0.00  0.00    +0.000 Cl
ATOM     11  C   UNL     1     -57.336 -41.785 -79.346  0.00  0.00    +0.000 A 
ATOM     12  C   UNL     1     -57.715 -41.919 -77.910  0.00  0.00    +0.000 A 
ATOM     13  O   UNL     1     -58.883 -42.141 -77.606  0.00  0.00    +0.000 OA
ATOM     14  H   UNL     1     -54.089 -41.614 -78.812  0.00  0.00    +0.000 HD
ENDROOT
BRANCH   1  16
ATOM     15  C   UNL     1     -57.499 -40.851 -74.563  0.00  0.00    +0.000 C 
ATOM     16  C   UNL     1     -57.069 -42.041 -75.391  0.00  0.00    +0.000 C 
ATOM     17  O   UNL     1     -57.047 -43.155 -74.865  0.00  0.00    +0.000 OA
ENDBRANCH   1  16
BRANCH   2  18
ATOM     18  S   UNL     1     -53.987 -41.754 -76.110  0.00  0.00    +0.000 S 
ATOM     19  O   UNL     1     -53.722 -43.236 -76.059  0.00  0.00    +0.000 OA
BRANCH  18  20
ATOM     20  C   UNL     1     -52.673 -41.043 -77.168  0.00  0.00    +0.000 C 
BRANCH  20  21
ATOM     21  C   UNL     1     -51.500 -40.570 -76.372  0.00  0.00    +0.000 A 
ATOM     22  C   UNL     1     -51.055 -39.252 -76.090  0.00  0.00    +0.000 A 
ATOM     23  C   UNL     1     -49.930 -39.422 -75.321  0.00  0.00    +0.000 A 
ATOM     24  C   UNL     1     -48.934 -38.509 -74.728  0.00  0.00    +0.000 C 
ATOM     25  O   UNL     1     -49.737 -40.749 -75.105  0.00  0.00    +0.000 OA
ATOM     26  N   UNL     1     -50.721 -41.472 -75.754  0.00  0.00    +0.000 NA
ENDBRANCH  20  21
ENDBRANCH  18  20
ENDBRANCH   2  18
TORSDOF 4
