=
 OpenBabel09152517483D

 26 28  0  0  0  0  0  0  0  0999 V2000
  -53.8330  -41.2910  -78.1870 C   0  0  0  0  0  0  0  0  0  0  0  0
  -54.7310  -42.3010  -78.1600 C   0  0  0  0  0  0  0  0  0  0  0  0
  -54.7420  -43.2760  -77.1780 N   0  0  0  0  0  0  0  0  0  0  0  0
  -53.6560  -43.4540  -76.3020 C   0  0  0  0  0  0  0  0  0  0  0  0
  -53.5710  -44.5850  -75.4720 C   0  0  0  0  0  0  0  0  0  0  0  0
  -54.8860  -45.9530  -75.5510 Br  0  0  0  0  0  0  0  0  0  0  0  0
  -52.5110  -44.7400  -74.5820 C   0  0  0  0  0  3  0  0  0  0  0  0
  -51.5240  -43.7590  -74.5100 C   0  0  0  0  0  3  0  0  0  0  0  0
  -51.6040  -42.6100  -75.3070 C   0  0  0  0  0  0  0  0  0  0  0  0
  -50.2870  -41.5010  -75.1760 Cl  0  0  0  0  0  0  0  0  0  0  0  0
  -52.6880  -42.4420  -76.1840 C   0  0  0  0  0  0  0  0  0  0  0  0
  -52.8990  -41.2230  -77.0110 C   0  0  0  0  0  0  0  0  0  0  0  0
  -52.3600  -40.1630  -76.7180 O   0  0  0  0  0  0  0  0  0  0  0  0
  -55.1900  -44.1490  -77.4650 H   0  0  0  0  0  0  0  0  0  0  0  0
  -54.1370  -38.8290  -78.9910 C   0  0  0  0  0  1  0  0  0  0  0  0
  -53.7170  -40.2590  -79.2740 C   0  0  0  0  0  0  0  0  0  0  0  0
  -53.2890  -40.5580  -80.3860 O   0  0  0  0  0  0  0  0  0  0  0  0
  -55.9350  -42.5580  -79.5060 S   0  0  1  0  0  0  0  0  0  0  0  0
  -56.4350  -43.9550  -79.2580 O   0  0  0  0  0  0  0  0  0  0  0  0
  -57.2430  -41.4240  -78.8930 C   0  0  0  0  0  2  0  0  0  0  0  0
  -57.4180  -41.4210  -77.4080 C   0  0  0  0  0  0  0  0  0  0  0  0
  -57.2570  -40.3820  -76.4550 C   0  0  0  0  0  3  0  0  0  0  0  0
  -57.6610  -40.9350  -75.2640 C   0  0  0  0  0  0  0  0  0  0  0  0
  -57.7730  -40.4460  -73.8760 C   0  0  0  0  0  1  0  0  0  0  0  0
  -58.0440  -42.2200  -75.4790 O   0  0  0  0  0  0  0  0  0  0  0  0
  -57.8990  -42.5280  -76.8180 N   0  0  0  0  0  0  0  0  0  0  0  0
  1  2  2  0  0  0  0
  1 12  1  0  0  0  0
  2  3  1  0  0  0  0
  3  4  1  0  0  0  0
  4 11  2  0  0  0  0
  4  5  1  0  0  0  0
  5  7  2  0  0  0  0
  6  5  1  0  0  0  0
  7  8  1  0  0  0  0
  9 10  1  0  0  0  0
  9  8  2  0  0  0  0
 11  9  1  0  0  0  0
 12 13  2  0  0  0  0
 12 11  1  0  0  0  0
 14  3  1  0  0  0  0
 16 15  1  0  0  0  0
 16  1  1  0  0  0  0
 17 16  2  0  0  0  0
 18 19  2  1  0  0  0
 18 20  1  0  0  0  0
 18  2  1  0  0  0  0
 20 21  1  0  0  0  0
 21 26  2  0  0  0  0
 21 22  1  0  0  0  0
 22 23  2  0  0  0  0
 23 24  1  0  0  0  0
 25 23  1  0  0  0  0
 26 25  1  0  0  0  0
M  END
>  <MODEL>
1

>  <REMARK>
 VINA RESULT:    -6.712      0.000      0.000
 INTER + INTRA:          -9.018
 INTER:                  -8.282
 INTRA:                  -0.736
 UNBOUND:                -0.736
  Name = 
  6 active torsions:
  status: ('A' for Active; 'I' for Inactive)
    1  A    between atoms: C_1  and  C_2
    2  A    between atoms: C_2  and  C_4
    3  A    between atoms: C_5  and  S_6
    4  A    between atoms: S_6  and  C_8
    5  A    between atoms: C_8  and  C_9
    6  A    between atoms: C_11  and  C_12
                            x       y       z     vdW  Elec       q    Type
                         _______ _______ _______ _____ _____    ______ ____

>  <TORSDO>
F 4

$$$$
