REMARK VINA RESULT:    -5.840     13.035     15.517
REMARK INTER + INTRA:          -8.487
REMARK INTER:                  -7.341
REMARK INTRA:                  -1.146
REMARK UNBOUND:                -0.940
REMARK  Name = 
REMARK  6 active torsions:
REMARK  status: ('A' for Active; 'I' for Inactive)
REMARK    1  A    between atoms: C_1  and  C_2
REMARK    2  A    between atoms: C_4  and  C_5
REMARK    3  A    between atoms: C_5  and  S_6
REMARK    4  A    between atoms: S_6  and  C_8
REMARK    5  A    between atoms: C_20  and  C_21
REMARK    6  A    between atoms: C_21  and  C_23
REMARK                            x       y       z     vdW  Elec       q    Type
REMARK                         _______ _______ _______ _____ _____    ______ ____
ROOT
ATOM      1  C   UNL     1     -57.336 -41.529 -78.538  0.00  0.00    +0.000 A 
ATOM      2  N   UNL     1     -56.815 -41.813 -79.816  0.00  0.00    +0.000 N 
ATOM      3  C   UNL     1     -55.422 -42.032 -79.996  0.00  0.00    +0.000 A 
ATOM      4  C   UNL     1     -54.887 -42.689 -81.121  0.00  0.00    +0.000 A 
ATOM      5 BR   UNL     1     -56.017 -43.499 -82.411  0.00  0.00    +0.000 Br
ATOM      6  C   UNL     1     -53.502 -42.786 -81.313  0.00  0.00    +0.000 A 
ATOM      7  C   UNL     1     -52.631 -42.247 -80.360  0.00  0.00    +0.000 A 
ATOM      8  C   UNL     1     -53.137 -41.594 -79.236  0.00  0.00    +0.000 A 
ATOM      9 CL   UNL     1     -51.982 -41.028 -78.084  0.00  0.00    +0.000 Cl
ATOM     10  C   UNL     1     -54.525 -41.471 -79.073  0.00  0.00    +0.000 A 
ATOM     11  C   UNL     1     -55.151 -40.725 -77.964  0.00  0.00    +0.000 A 
ATOM     12  O   UNL     1     -54.603 -39.759 -77.447  0.00  0.00    +0.000 OA
ATOM     13  C   UNL     1     -56.527 -41.133 -77.530  0.00  0.00    +0.000 A 
ATOM     14  H   UNL     1     -57.409 -42.469 -80.341  0.00  0.00    +0.000 HD
ENDROOT
BRANCH   1  15
ATOM     15  S   UNL     1     -59.016 -42.168 -78.313  0.00  0.00    +0.000 S 
ATOM     16  O   UNL     1     -58.813 -43.589 -77.862  0.00  0.00    +0.000 OA
BRANCH  15  17
ATOM     17  C   UNL     1     -59.864 -42.223 -79.919  0.00  0.00    +0.000 C 
BRANCH  17  21
ATOM     18  C   UNL     1     -61.523 -37.745 -81.767  0.00  0.00    +0.000 C 
ATOM     19  C   UNL     1     -60.900 -39.028 -81.390  0.00  0.00    +0.000 A 
ATOM     20  C   UNL     1     -61.071 -39.920 -80.358  0.00  0.00    +0.000 A 
ATOM     21  C   UNL     1     -60.204 -40.991 -80.668  0.00  0.00    +0.000 A 
ATOM     22  N   UNL     1     -59.503 -40.723 -81.783  0.00  0.00    +0.000 NA
ATOM     23  O   UNL     1     -59.943 -39.495 -82.231  0.00  0.00    +0.000 OA
ENDBRANCH  17  21
ENDBRANCH  15  17
ENDBRANCH   1  15
BRANCH  13  24
ATOM     24  C   UNL     1     -56.697 -41.191 -76.050  0.00  0.00    +0.000 C 
ATOM     25  O   UNL     1     -57.427 -40.401 -75.479  0.00  0.00    +0.000 OA
BRANCH  24  26
ATOM     26  C   UNL     1     -56.002 -42.251 -75.296  0.00  0.00    +0.000 C 
ATOM     27  C   UNL     1     -55.863 -43.624 -75.904  0.00  0.00    +0.000 C 
ATOM     28  C   UNL     1     -56.757 -43.424 -74.718  0.00  0.00    +0.000 C 
ENDBRANCH  24  26
ENDBRANCH  13  24
TORSDOF 5
