REMARK VINA RESULT:    -7.228      3.271      6.042
REMARK INTER + INTRA:          -9.660
REMARK INTER:                  -8.680
REMARK INTRA:                  -0.979
REMARK UNBOUND:                -0.741
REMARK  Name = 
REMARK  5 active torsions:
REMARK  status: ('A' for Active; 'I' for Inactive)
REMARK    1  A    between atoms: C_1  and  C_2
REMARK    2  A    between atoms: C_2  and  C_4
REMARK    3  A    between atoms: C_5  and  S_6
REMARK    4  A    between atoms: S_6  and  C_8
REMARK    5  A    between atoms: C_8  and  C_9
REMARK                            x       y       z     vdW  Elec       q    Type
REMARK                         _______ _______ _______ _____ _____    ______ ____
ROOT
ATOM      1  C   UNL     1     -55.829 -41.633 -77.581  0.00  0.00    +0.000 A 
ATOM      2  C   UNL     1     -55.685 -42.757 -76.845  0.00  0.00    +0.000 A 
ATOM      3  N   UNL     1     -54.594 -43.005 -76.030  0.00  0.00    +0.000 N 
ATOM      4  C   UNL     1     -53.428 -42.223 -76.110  0.00  0.00    +0.000 A 
ATOM      5  C   UNL     1     -52.250 -42.615 -75.452  0.00  0.00    +0.000 A 
ATOM      6 BR   UNL     1     -52.170 -44.243 -74.477  0.00  0.00    +0.000 Br
ATOM      7  C   UNL     1     -51.107 -41.824 -75.511  0.00  0.00    +0.000 A 
ATOM      8  C   UNL     1     -51.132 -40.628 -76.225  0.00  0.00    +0.000 A 
ATOM      9  C   UNL     1     -52.304 -40.206 -76.864  0.00  0.00    +0.000 A 
ATOM     10 CL   UNL     1     -52.188 -38.740 -77.771  0.00  0.00    +0.000 Cl
ATOM     11  C   UNL     1     -53.466 -40.989 -76.783  0.00  0.00    +0.000 A 
ATOM     12  C   UNL     1     -54.776 -40.589 -77.369  0.00  0.00    +0.000 A 
ATOM     13  O   UNL     1     -55.014 -39.418 -77.643  0.00  0.00    +0.000 OA
ATOM     14  H   UNL     1     -54.426 -43.996 -75.848  0.00  0.00    +0.000 HD
ENDROOT
BRANCH   1  16
ATOM     15  C   UNL     1     -56.787 -41.810 -79.996  0.00  0.00    +0.000 C 
ATOM     16  C   UNL     1     -56.942 -41.378 -78.556  0.00  0.00    +0.000 C 
ATOM     17  O   UNL     1     -57.991 -40.828 -78.202  0.00  0.00    +0.000 OA
ENDBRANCH   1  16
BRANCH   2  18
ATOM     18  S   UNL     1     -56.854 -44.130 -77.001  0.00  0.00    +0.000 S 
ATOM     19  O   UNL     1     -56.239 -45.216 -76.163  0.00  0.00    +0.000 OA
BRANCH  18  20
ATOM     20  C   UNL     1     -58.246 -43.468 -76.009  0.00  0.00    +0.000 C 
BRANCH  20  21
ATOM     21  C   UNL     1     -57.932 -42.639 -74.786  0.00  0.00    +0.000 A 
ATOM     22  C   UNL     1     -57.231 -43.134 -73.682  0.00  0.00    +0.000 A 
ATOM     23  C   UNL     1     -56.907 -42.298 -72.610  0.00  0.00    +0.000 A 
ATOM     24  C   UNL     1     -57.256 -40.950 -72.637  0.00  0.00    +0.000 A 
ATOM     25  C   UNL     1     -57.927 -40.434 -73.742  0.00  0.00    +0.000 A 
ATOM     26  C   UNL     1     -58.257 -41.270 -74.809  0.00  0.00    +0.000 A 
ENDBRANCH  20  21
ENDBRANCH  18  20
ENDBRANCH   2  18
TORSDOF 4
