REMARK VINA RESULT:    -6.586      3.487      6.355
REMARK INTER + INTRA:          -9.361
REMARK INTER:                  -8.529
REMARK INTRA:                  -0.832
REMARK UNBOUND:                -1.235
REMARK  Name = 
REMARK  5 active torsions:
REMARK  status: ('A' for Active; 'I' for Inactive)
REMARK    1  A    between atoms: C_1  and  C_2
REMARK    2  A    between atoms: C_2  and  C_4
REMARK    3  A    between atoms: C_5  and  S_6
REMARK    4  A    between atoms: S_6  and  C_8
REMARK    5  A    between atoms: C_8  and  C_9
REMARK                            x       y       z     vdW  Elec       q    Type
REMARK                         _______ _______ _______ _____ _____    ______ ____
ROOT
ATOM      1  C   UNL     1     -55.905 -41.161 -63.800  0.00  0.00    +0.000 A 
ATOM      2  C   UNL     1     -54.786 -40.414 -63.955  0.00  0.00    +0.000 A 
ATOM      3  N   UNL     1     -54.693 -39.095 -63.548  0.00  0.00    +0.000 N 
ATOM      4  C   UNL     1     -55.784 -38.367 -63.049  0.00  0.00    +0.000 A 
ATOM      5  C   UNL     1     -55.638 -37.025 -62.657  0.00  0.00    +0.000 A 
ATOM      6 BR   UNL     1     -53.977 -36.123 -62.860  0.00  0.00    +0.000 Br
ATOM      7  C   UNL     1     -56.703 -36.315 -62.107  0.00  0.00    +0.000 A 
ATOM      8  C   UNL     1     -57.932 -36.946 -61.937  0.00  0.00    +0.000 A 
ATOM      9  C   UNL     1     -58.098 -38.288 -62.297  0.00  0.00    +0.000 A 
ATOM     10 CL   UNL     1     -59.684 -38.927 -62.034  0.00  0.00    +0.000 Cl
ATOM     11  C   UNL     1     -57.015 -39.013 -62.836  0.00  0.00    +0.000 A 
ATOM     12  C   UNL     1     -57.105 -40.447 -63.229  0.00  0.00    +0.000 A 
ATOM     13  O   UNL     1     -58.169 -41.043 -63.124  0.00  0.00    +0.000 OA
ATOM     14  H   UNL     1     -53.975 -38.543 -64.022  0.00  0.00    +0.000 HD
ENDROOT
BRANCH   1  16
ATOM     15  C   UNL     1     -55.645 -43.677 -63.187  0.00  0.00    +0.000 C 
ATOM     16  C   UNL     1     -56.025 -42.609 -64.189  0.00  0.00    +0.000 C 
ATOM     17  O   UNL     1     -56.398 -42.952 -65.310  0.00  0.00    +0.000 OA
ENDBRANCH   1  16
BRANCH   2  18
ATOM     18  S   UNL     1     -53.341 -41.031 -64.880  0.00  0.00    +0.000 S 
ATOM     19  O   UNL     1     -52.645 -39.765 -65.309  0.00  0.00    +0.000 OA
BRANCH  18  20
ATOM     20  C   UNL     1     -52.360 -41.696 -63.478  0.00  0.00    +0.000 C 
BRANCH  20  21
ATOM     21  C   UNL     1     -51.517 -42.893 -63.860  0.00  0.00    +0.000 A 
ATOM     22  C   UNL     1     -51.901 -44.197 -63.502  0.00  0.00    +0.000 A 
ATOM     23  C   UNL     1     -51.124 -45.299 -63.871  0.00  0.00    +0.000 A 
ATOM     24  C   UNL     1     -49.959 -45.117 -64.610  0.00  0.00    +0.000 A 
ATOM     25  C   UNL     1     -49.573 -43.832 -64.986  0.00  0.00    +0.000 A 
ATOM     26  C   UNL     1     -50.346 -42.727 -64.615  0.00  0.00    +0.000 A 
ENDBRANCH  20  21
ENDBRANCH  18  20
ENDBRANCH   2  18
TORSDOF 4
