REMARK VINA RESULT:    -6.765      0.000      0.000
REMARK INTER + INTRA:          -9.063
REMARK INTER:                  -8.347
REMARK INTRA:                  -0.716
REMARK UNBOUND:                -0.716
REMARK  Name = 
REMARK  6 active torsions:
REMARK  status: ('A' for Active; 'I' for Inactive)
REMARK    1  A    between atoms: C_1  and  C_2
REMARK    2  A    between atoms: C_2  and  C_4
REMARK    3  A    between atoms: C_5  and  S_6
REMARK    4  A    between atoms: S_6  and  C_8
REMARK    5  A    between atoms: C_8  and  C_9
REMARK    6  A    between atoms: C_11  and  C_12
REMARK                            x       y       z     vdW  Elec       q    Type
REMARK                         _______ _______ _______ _____ _____    ______ ____
ROOT
ATOM      1  C   UNL     1     -55.979 -41.394 -77.398  0.00  0.00    +0.000 A 
ATOM      2  C   UNL     1     -55.819 -42.589 -76.786  0.00  0.00    +0.000 A 
ATOM      3  N   UNL     1     -54.667 -42.954 -76.117  0.00  0.00    +0.000 N 
ATOM      4  C   UNL     1     -53.493 -42.181 -76.147  0.00  0.00    +0.000 A 
ATOM      5  C   UNL     1     -52.325 -42.622 -75.499  0.00  0.00    +0.000 A 
ATOM      6 BR   UNL     1     -52.264 -44.312 -74.632  0.00  0.00    +0.000 Br
ATOM      7  C   UNL     1     -51.175 -41.836 -75.479  0.00  0.00    +0.000 A 
ATOM      8  C   UNL     1     -51.186 -40.590 -76.099  0.00  0.00    +0.000 A 
ATOM      9  C   UNL     1     -52.340 -40.119 -76.729  0.00  0.00    +0.000 A 
ATOM     10 CL   UNL     1     -52.194 -38.559 -77.464  0.00  0.00    +0.000 Cl
ATOM     11  C   UNL     1     -53.510 -40.907 -76.739  0.00  0.00    +0.000 A 
ATOM     12  C   UNL     1     -54.786 -40.478 -77.381  0.00  0.00    +0.000 A 
ATOM     13  O   UNL     1     -54.850 -39.387 -77.937  0.00  0.00    +0.000 OA
ATOM     14  H   UNL     1     -54.519 -43.961 -76.020  0.00  0.00    +0.000 HD
ENDROOT
BRANCH   1  16
ATOM     15  C   UNL     1     -58.200 -40.023 -77.418  0.00  0.00    +0.000 C 
ATOM     16  C   UNL     1     -57.237 -40.961 -78.112  0.00  0.00    +0.000 C 
ATOM     17  O   UNL     1     -57.507 -41.358 -79.246  0.00  0.00    +0.000 OA
ENDBRANCH   1  16
BRANCH   2  18
ATOM     18  S   UNL     1     -57.064 -43.911 -76.944  0.00  0.00    +0.000 S 
ATOM     19  O   UNL     1     -56.435 -45.071 -76.219  0.00  0.00    +0.000 OA
BRANCH  18  20
ATOM     20  C   UNL     1     -58.351 -43.252 -75.822  0.00  0.00    +0.000 C 
BRANCH  20  21
ATOM     21  C   UNL     1     -57.769 -42.670 -74.574  0.00  0.00    +0.000 A 
ATOM     22  C   UNL     1     -57.841 -41.348 -74.060  0.00  0.00    +0.000 A 
ATOM     23  C   UNL     1     -57.121 -41.391 -72.891  0.00  0.00    +0.000 A 
ATOM     24  C   UNL     1     -56.729 -40.391 -71.880  0.00  0.00    +0.000 C 
ATOM     25  O   UNL     1     -56.689 -42.662 -72.683  0.00  0.00    +0.000 OA
ATOM     26  N   UNL     1     -57.098 -43.468 -73.731  0.00  0.00    +0.000 NA
ENDBRANCH  20  21
ENDBRANCH  18  20
ENDBRANCH   2  18
TORSDOF 4
