REMARK VINA RESULT:    -5.051      4.657      7.624
REMARK INTER + INTRA:          -7.274
REMARK INTER:                  -6.644
REMARK INTRA:                  -0.630
REMARK UNBOUND:                -1.042
REMARK  Name = 
REMARK  6 active torsions:
REMARK  status: ('A' for Active; 'I' for Inactive)
REMARK    1  A    between atoms: C_1  and  C_2
REMARK    2  A    between atoms: C_2  and  C_4
REMARK    3  A    between atoms: C_5  and  S_6
REMARK    4  A    between atoms: S_6  and  C_8
REMARK    5  A    between atoms: C_8  and  C_9
REMARK    6  A    between atoms: C_11  and  C_12
REMARK                            x       y       z     vdW  Elec       q    Type
REMARK                         _______ _______ _______ _____ _____    ______ ____
ROOT
ATOM      1  C   UNL     1     -57.148 -46.994 -77.694  0.00  0.00    +0.000 A 
ATOM      2  C   UNL     1     -56.715 -45.741 -77.425  0.00  0.00    +0.000 A 
ATOM      3  N   UNL     1     -57.557 -44.651 -77.329  0.00  0.00    +0.000 N 
ATOM      4  C   UNL     1     -58.930 -44.722 -77.604  0.00  0.00    +0.000 A 
ATOM      5  C   UNL     1     -59.750 -43.582 -77.481  0.00  0.00    +0.000 A 
ATOM      6 BR   UNL     1     -59.007 -41.895 -77.013  0.00  0.00    +0.000 Br
ATOM      7  C   UNL     1     -61.121 -43.656 -77.693  0.00  0.00    +0.000 A 
ATOM      8  C   UNL     1     -61.702 -44.877 -78.026  0.00  0.00    +0.000 A 
ATOM      9  C   UNL     1     -60.913 -46.030 -78.136  0.00  0.00    +0.000 A 
ATOM     10 CL   UNL     1     -61.772 -47.467 -78.569  0.00  0.00    +0.000 Cl
ATOM     11  C   UNL     1     -59.524 -45.959 -77.904  0.00  0.00    +0.000 A 
ATOM     12  C   UNL     1     -58.618 -47.139 -77.987  0.00  0.00    +0.000 A 
ATOM     13  O   UNL     1     -59.062 -48.227 -78.334  0.00  0.00    +0.000 OA
ATOM     14  H   UNL     1     -57.122 -43.737 -77.456  0.00  0.00    +0.000 HD
ENDROOT
BRANCH   1  16
ATOM     15  C   UNL     1     -55.678 -48.632 -79.081  0.00  0.00    +0.000 C 
ATOM     16  C   UNL     1     -56.261 -48.212 -77.751  0.00  0.00    +0.000 C 
ATOM     17  O   UNL     1     -56.020 -48.885 -76.751  0.00  0.00    +0.000 OA
ENDBRANCH   1  16
BRANCH   2  18
ATOM     18  S   UNL     1     -54.936 -45.358 -77.304  0.00  0.00    +0.000 S 
ATOM     19  O   UNL     1     -54.646 -44.627 -78.590  0.00  0.00    +0.000 OA
BRANCH  18  20
ATOM     20  C   UNL     1     -54.999 -44.079 -76.001  0.00  0.00    +0.000 C 
BRANCH  20  21
ATOM     21  C   UNL     1     -53.727 -43.305 -75.890  0.00  0.00    +0.000 A 
ATOM     22  C   UNL     1     -53.352 -42.070 -76.482  0.00  0.00    +0.000 A 
ATOM     23  C   UNL     1     -52.091 -41.823 -76.002  0.00  0.00    +0.000 A 
ATOM     24  C   UNL     1     -51.094 -40.757 -76.215  0.00  0.00    +0.000 C 
ATOM     25  O   UNL     1     -51.738 -42.820 -75.148  0.00  0.00    +0.000 OA
ATOM     26  N   UNL     1     -52.762 -43.746 -75.069  0.00  0.00    +0.000 NA
ENDBRANCH  20  21
ENDBRANCH  18  20
ENDBRANCH   2  18
TORSDOF 4
