REMARK VINA RESULT:    -5.143      5.830      8.476
REMARK INTER + INTRA:          -7.428
REMARK INTER:                  -6.605
REMARK INTRA:                  -0.823
REMARK UNBOUND:                -1.082
REMARK  Name = 
REMARK  6 active torsions:
REMARK  status: ('A' for Active; 'I' for Inactive)
REMARK    1  A    between atoms: C_1  and  C_2
REMARK    2  A    between atoms: C_2  and  C_4
REMARK    3  A    between atoms: C_5  and  S_6
REMARK    4  A    between atoms: S_6  and  C_8
REMARK    5  A    between atoms: C_8  and  C_9
REMARK    6  A    between atoms: C_11  and  C_12
REMARK                            x       y       z     vdW  Elec       q    Type
REMARK                         _______ _______ _______ _____ _____    ______ ____
ROOT
ATOM      1  C   UNL     1     -56.723 -36.405 -62.674  0.00  0.00    +0.000 A 
ATOM      2  C   UNL     1     -57.445 -37.502 -62.361  0.00  0.00    +0.000 A 
ATOM      3  N   UNL     1     -58.807 -37.479 -62.132  0.00  0.00    +0.000 N 
ATOM      4  C   UNL     1     -59.545 -36.287 -62.056  0.00  0.00    +0.000 A 
ATOM      5  C   UNL     1     -60.924 -36.312 -61.774  0.00  0.00    +0.000 A 
ATOM      6 BR   UNL     1     -61.816 -37.948 -61.400  0.00  0.00    +0.000 Br
ATOM      7  C   UNL     1     -61.673 -35.139 -61.751  0.00  0.00    +0.000 A 
ATOM      8  C   UNL     1     -61.053 -33.923 -62.022  0.00  0.00    +0.000 A 
ATOM      9  C   UNL     1     -59.687 -33.874 -62.329  0.00  0.00    +0.000 A 
ATOM     10 CL   UNL     1     -59.060 -32.291 -62.632  0.00  0.00    +0.000 Cl
ATOM     11  C   UNL     1     -58.929 -35.062 -62.365  0.00  0.00    +0.000 A 
ATOM     12  C   UNL     1     -57.474 -35.096 -62.684  0.00  0.00    +0.000 A 
ATOM     13  O   UNL     1     -56.874 -34.055 -62.912  0.00  0.00    +0.000 OA
ATOM     14  H   UNL     1     -59.170 -38.253 -61.570  0.00  0.00    +0.000 HD
ENDROOT
BRANCH   1  16
ATOM     15  C   UNL     1     -54.767 -36.609 -64.383  0.00  0.00    +0.000 C 
ATOM     16  C   UNL     1     -55.244 -36.404 -62.964  0.00  0.00    +0.000 C 
ATOM     17  O   UNL     1     -54.410 -36.255 -62.068  0.00  0.00    +0.000 OA
ENDBRANCH   1  16
BRANCH   2  18
ATOM     18  S   UNL     1     -56.641 -39.109 -62.048  0.00  0.00    +0.000 S 
ATOM     19  O   UNL     1     -56.465 -39.125 -60.552  0.00  0.00    +0.000 OA
BRANCH  18  20
ATOM     20  C   UNL     1     -58.050 -40.222 -62.400  0.00  0.00    +0.000 C 
BRANCH  20  21
ATOM     21  C   UNL     1     -57.970 -40.826 -63.764  0.00  0.00    +0.000 A 
ATOM     22  C   UNL     1     -57.036 -40.601 -64.810  0.00  0.00    +0.000 A 
ATOM     23  C   UNL     1     -57.450 -41.424 -65.828  0.00  0.00    +0.000 A 
ATOM     24  C   UNL     1     -56.999 -41.666 -67.211  0.00  0.00    +0.000 C 
ATOM     25  O   UNL     1     -58.529 -42.138 -65.410  0.00  0.00    +0.000 OA
ATOM     26  N   UNL     1     -58.853 -41.772 -64.117  0.00  0.00    +0.000 NA
ENDBRANCH  20  21
ENDBRANCH  18  20
ENDBRANCH   2  18
TORSDOF 4
