REMARK VINA RESULT:    -5.580     22.019     25.565
REMARK INTER + INTRA:          -8.133
REMARK INTER:                  -7.314
REMARK INTRA:                  -0.819
REMARK UNBOUND:                -0.922
REMARK  Name = 
REMARK  6 active torsions:
REMARK  status: ('A' for Active; 'I' for Inactive)
REMARK    1  A    between atoms: C_1  and  C_2
REMARK    2  A    between atoms: C_4  and  C_5
REMARK    3  A    between atoms: C_5  and  S_6
REMARK    4  A    between atoms: S_6  and  C_8
REMARK    5  A    between atoms: C_20  and  C_21
REMARK    6  A    between atoms: C_21  and  C_23
REMARK                            x       y       z     vdW  Elec       q    Type
REMARK                         _______ _______ _______ _____ _____    ______ ____
ROOT
ATOM      1  C   UNL     1     -68.003 -49.552 -54.925  0.00  0.00    +0.000 A 
ATOM      2  N   UNL     1     -66.975 -49.507 -53.963  0.00  0.00    +0.000 N 
ATOM      3  C   UNL     1     -66.496 -50.702 -53.361  0.00  0.00    +0.000 A 
ATOM      4  C   UNL     1     -65.251 -50.788 -52.710  0.00  0.00    +0.000 A 
ATOM      5 BR   UNL     1     -64.025 -49.341 -52.745  0.00  0.00    +0.000 Br
ATOM      6  C   UNL     1     -64.864 -51.955 -52.034  0.00  0.00    +0.000 A 
ATOM      7  C   UNL     1     -65.716 -53.065 -52.027  0.00  0.00    +0.000 A 
ATOM      8  C   UNL     1     -66.955 -53.004 -52.667  0.00  0.00    +0.000 A 
ATOM      9 CL   UNL     1     -67.900 -54.449 -52.662  0.00  0.00    +0.000 Cl
ATOM     10  C   UNL     1     -67.345 -51.819 -53.309  0.00  0.00    +0.000 A 
ATOM     11  C   UNL     1     -68.667 -51.632 -53.937  0.00  0.00    +0.000 A 
ATOM     12  O   UNL     1     -69.666 -52.206 -53.520  0.00  0.00    +0.000 OA
ATOM     13  C   UNL     1     -68.778 -50.650 -55.065  0.00  0.00    +0.000 A 
ATOM     14  H   UNL     1     -66.231 -48.844 -54.219  0.00  0.00    +0.000 HD
ENDROOT
BRANCH   1  15
ATOM     15  S   UNL     1     -67.851 -48.241 -56.167  0.00  0.00    +0.000 S 
ATOM     16  O   UNL     1     -67.300 -48.942 -57.379  0.00  0.00    +0.000 OA
BRANCH  15  17
ATOM     17  C   UNL     1     -66.605 -47.034 -55.626  0.00  0.00    +0.000 C 
BRANCH  17  21
ATOM     18  C   UNL     1     -62.111 -46.363 -57.987  0.00  0.00    +0.000 C 
ATOM     19  C   UNL     1     -63.493 -46.473 -57.482  0.00  0.00    +0.000 A 
ATOM     20  C   UNL     1     -64.072 -47.014 -56.359  0.00  0.00    +0.000 A 
ATOM     21  C   UNL     1     -65.440 -46.679 -56.469  0.00  0.00    +0.000 A 
ATOM     22  N   UNL     1     -65.677 -46.036 -57.626  0.00  0.00    +0.000 NA
ATOM     23  O   UNL     1     -64.456 -45.909 -58.254  0.00  0.00    +0.000 OA
ENDBRANCH  17  21
ENDBRANCH  15  17
ENDBRANCH   1  15
BRANCH  13  24
ATOM     24  C   UNL     1     -69.591 -51.144 -56.212  0.00  0.00    +0.000 C 
ATOM     25  O   UNL     1     -69.259 -52.147 -56.820  0.00  0.00    +0.000 OA
BRANCH  24  26
ATOM     26  C   UNL     1     -70.828 -50.424 -56.570  0.00  0.00    +0.000 C 
ATOM     27  C   UNL     1     -71.683 -50.937 -57.700  0.00  0.00    +0.000 C 
ATOM     28  C   UNL     1     -70.937 -49.647 -57.860  0.00  0.00    +0.000 C 
ENDBRANCH  24  26
ENDBRANCH  13  24
TORSDOF 5
