REMARK VINA RESULT:    -6.429      4.292      6.322
REMARK INTER + INTRA:          -8.576
REMARK INTER:                  -7.829
REMARK INTRA:                  -0.747
REMARK UNBOUND:                -0.644
REMARK  Name = 
REMARK  6 active torsions:
REMARK  status: ('A' for Active; 'I' for Inactive)
REMARK    1  A    between atoms: C_1  and  C_2
REMARK    2  A    between atoms: C_2  and  C_4
REMARK    3  A    between atoms: C_5  and  S_6
REMARK    4  A    between atoms: S_6  and  C_8
REMARK    5  A    between atoms: C_8  and  C_9
REMARK    6  A    between atoms: C_11  and  C_12
REMARK                            x       y       z     vdW  Elec       q    Type
REMARK                         _______ _______ _______ _____ _____    ______ ____
ROOT
ATOM      1  C   UNL     1     -53.393 -41.490 -77.967  0.00  0.00    +0.000 A 
ATOM      2  C   UNL     1     -54.715 -41.279 -78.159  0.00  0.00    +0.000 A 
ATOM      3  N   UNL     1     -55.348 -41.484 -79.368  0.00  0.00    +0.000 N 
ATOM      4  C   UNL     1     -54.654 -41.786 -80.552  0.00  0.00    +0.000 A 
ATOM      5  C   UNL     1     -55.341 -41.961 -81.768  0.00  0.00    +0.000 A 
ATOM      6 BR   UNL     1     -57.225 -41.740 -81.869  0.00  0.00    +0.000 Br
ATOM      7  C   UNL     1     -54.664 -42.304 -82.934  0.00  0.00    +0.000 A 
ATOM      8  C   UNL     1     -53.281 -42.486 -82.896  0.00  0.00    +0.000 A 
ATOM      9  C   UNL     1     -52.577 -42.339 -81.696  0.00  0.00    +0.000 A 
ATOM     10 CL   UNL     1     -50.868 -42.575 -81.816  0.00  0.00    +0.000 Cl
ATOM     11  C   UNL     1     -53.267 -42.014 -80.511  0.00  0.00    +0.000 A 
ATOM     12  C   UNL     1     -52.599 -41.876 -79.188  0.00  0.00    +0.000 A 
ATOM     13  O   UNL     1     -51.389 -42.042 -79.098  0.00  0.00    +0.000 OA
ATOM     14  H   UNL     1     -56.230 -40.982 -79.494  0.00  0.00    +0.000 HD
ENDROOT
BRANCH   1  16
ATOM     15  C   UNL     1     -52.642 -42.487 -75.680  0.00  0.00    +0.000 C 
ATOM     16  C   UNL     1     -52.682 -41.324 -76.647  0.00  0.00    +0.000 C 
ATOM     17  O   UNL     1     -52.147 -40.261 -76.330  0.00  0.00    +0.000 OA
ENDBRANCH   1  16
BRANCH   2  18
ATOM     18  S   UNL     1     -55.758 -40.531 -76.863  0.00  0.00    +0.000 S 
ATOM     19  O   UNL     1     -56.947 -40.015 -77.630  0.00  0.00    +0.000 OA
BRANCH  18  20
ATOM     20  C   UNL     1     -56.328 -42.052 -76.020  0.00  0.00    +0.000 C 
BRANCH  20  21
ATOM     21  C   UNL     1     -56.639 -41.788 -74.584  0.00  0.00    +0.000 A 
ATOM     22  C   UNL     1     -56.036 -42.338 -73.421  0.00  0.00    +0.000 A 
ATOM     23  C   UNL     1     -56.680 -41.726 -72.375  0.00  0.00    +0.000 A 
ATOM     24  C   UNL     1     -56.590 -41.818 -70.906  0.00  0.00    +0.000 C 
ATOM     25  O   UNL     1     -57.596 -40.850 -72.869  0.00  0.00    +0.000 OA
ATOM     26  N   UNL     1     -57.567 -40.880 -74.253  0.00  0.00    +0.000 NA
ENDBRANCH  20  21
ENDBRANCH  18  20
ENDBRANCH   2  18
TORSDOF 4
