REMARK VINA RESULT:    -6.072      3.973      5.000
REMARK INTER + INTRA:          -8.789
REMARK INTER:                  -7.819
REMARK INTRA:                  -0.971
REMARK UNBOUND:                -0.943
REMARK  Name = 
REMARK  6 active torsions:
REMARK  status: ('A' for Active; 'I' for Inactive)
REMARK    1  A    between atoms: C_1  and  C_2
REMARK    2  A    between atoms: C_4  and  C_5
REMARK    3  A    between atoms: C_5  and  S_6
REMARK    4  A    between atoms: S_6  and  C_8
REMARK    5  A    between atoms: C_20  and  C_21
REMARK    6  A    between atoms: C_21  and  C_23
REMARK                            x       y       z     vdW  Elec       q    Type
REMARK                         _______ _______ _______ _____ _____    ______ ____
ROOT
ATOM      1  C   UNL     1     -54.355 -43.196 -78.846  0.00  0.00    +0.000 A 
ATOM      2  N   UNL     1     -54.766 -44.075 -79.866  0.00  0.00    +0.000 N 
ATOM      3  C   UNL     1     -54.058 -44.138 -81.097  0.00  0.00    +0.000 A 
ATOM      4  C   UNL     1     -54.153 -45.227 -81.984  0.00  0.00    +0.000 A 
ATOM      5 BR   UNL     1     -55.110 -46.795 -81.509  0.00  0.00    +0.000 Br
ATOM      6  C   UNL     1     -53.524 -45.199 -83.237  0.00  0.00    +0.000 A 
ATOM      7  C   UNL     1     -52.765 -44.083 -83.606  0.00  0.00    +0.000 A 
ATOM      8  C   UNL     1     -52.655 -42.992 -82.743  0.00  0.00    +0.000 A 
ATOM      9 CL   UNL     1     -51.637 -41.697 -83.261  0.00  0.00    +0.000 Cl
ATOM     10  C   UNL     1     -53.318 -43.017 -81.507  0.00  0.00    +0.000 A 
ATOM     11  C   UNL     1     -53.329 -41.879 -80.568  0.00  0.00    +0.000 A 
ATOM     12  O   UNL     1     -53.260 -40.720 -80.958  0.00  0.00    +0.000 OA
ATOM     13  C   UNL     1     -53.511 -42.173 -79.108  0.00  0.00    +0.000 A 
ATOM     14  H   UNL     1     -55.040 -44.997 -79.499  0.00  0.00    +0.000 HD
ENDROOT
BRANCH   1  15
ATOM     15  S   UNL     1     -54.696 -43.843 -77.188  0.00  0.00    +0.000 S 
ATOM     16  O   UNL     1     -54.780 -45.333 -77.384  0.00  0.00    +0.000 OA
BRANCH  15  17
ATOM     17  C   UNL     1     -56.331 -43.274 -76.639  0.00  0.00    +0.000 C 
BRANCH  17  21
ATOM     18  C   UNL     1     -57.000 -40.620 -72.311  0.00  0.00    +0.000 C 
ATOM     19  C   UNL     1     -56.895 -41.548 -73.453  0.00  0.00    +0.000 A 
ATOM     20  C   UNL     1     -56.500 -41.427 -74.764  0.00  0.00    +0.000 A 
ATOM     21  C   UNL     1     -56.558 -42.742 -75.275  0.00  0.00    +0.000 A 
ATOM     22  N   UNL     1     -57.029 -43.590 -74.344  0.00  0.00    +0.000 NA
ATOM     23  O   UNL     1     -57.236 -42.838 -73.206  0.00  0.00    +0.000 OA
ENDBRANCH  17  21
ENDBRANCH  15  17
ENDBRANCH   1  15
BRANCH  13  24
ATOM     24  C   UNL     1     -52.596 -41.398 -78.223  0.00  0.00    +0.000 C 
ATOM     25  O   UNL     1     -51.395 -41.603 -78.241  0.00  0.00    +0.000 OA
BRANCH  24  26
ATOM     26  C   UNL     1     -53.164 -40.347 -77.359  0.00  0.00    +0.000 C 
ATOM     27  C   UNL     1     -54.514 -39.763 -77.691  0.00  0.00    +0.000 C 
ATOM     28  C   UNL     1     -53.284 -38.919 -77.838  0.00  0.00    +0.000 C 
ENDBRANCH  24  26
ENDBRANCH  13  24
TORSDOF 5
