REMARK VINA RESULT:    -5.583     15.876     17.806
REMARK INTER + INTRA:          -7.914
REMARK INTER:                  -6.846
REMARK INTRA:                  -1.067
REMARK UNBOUND:                -0.699
REMARK  Name = 
REMARK  8 active torsions:
REMARK  status: ('A' for Active; 'I' for Inactive)
REMARK    1  A    between atoms: C_1  and  C_2
REMARK    2  A    between atoms: C_4  and  C_5
REMARK    3  A    between atoms: C_5  and  S_6
REMARK    4  A    between atoms: S_6  and  C_8
REMARK    5  A    between atoms: C_20  and  C_21
REMARK    6  A    between atoms: C_21  and  C_23
REMARK    7  A    between atoms: C_23  and  C_24
REMARK    8  A    between atoms: C_23  and  C_25
REMARK                            x       y       z     vdW  Elec       q    Type
REMARK                         _______ _______ _______ _____ _____    ______ ____
ROOT
ATOM      1  C   UNL     1     -48.979 -26.691 -61.953  0.00  0.00    +0.000 A 
ATOM      2  N   UNL     1     -48.039 -27.258 -62.808  0.00  0.00    +0.000 N 
ATOM      3  C   UNL     1     -47.374 -26.493 -63.785  0.00  0.00    +0.000 A 
ATOM      4  C   UNL     1     -46.159 -26.908 -64.363  0.00  0.00    +0.000 A 
ATOM      5 BR   UNL     1     -45.258 -28.455 -63.734  0.00  0.00    +0.000 Br
ATOM      6  C   UNL     1     -45.560 -26.169 -65.387  0.00  0.00    +0.000 A 
ATOM      7  C   UNL     1     -46.163 -25.001 -65.845  0.00  0.00    +0.000 A 
ATOM      8  C   UNL     1     -47.374 -24.565 -65.276  0.00  0.00    +0.000 A 
ATOM      9 CL   UNL     1     -47.989 -23.067 -65.877  0.00  0.00    +0.000 Cl
ATOM     10  C   UNL     1     -47.982 -25.314 -64.248  0.00  0.00    +0.000 A 
ATOM     11  C   UNL     1     -49.273 -24.957 -63.607  0.00  0.00    +0.000 A 
ATOM     12  O   UNL     1     -50.083 -24.255 -64.205  0.00  0.00    +0.000 OA
ATOM     13  C   UNL     1     -49.569 -25.499 -62.211  0.00  0.00    +0.000 A 
ATOM     14  H   UNL     1     -47.494 -28.019 -62.382  0.00  0.00    +0.000 HD
ENDROOT
BRANCH   1  15
ATOM     15  S   UNL     1     -49.127 -27.640 -60.392  0.00  0.00    +0.000 S 
ATOM     16  O   UNL     1     -48.481 -26.748 -59.367  0.00  0.00    +0.000 OA
BRANCH  15  17
ATOM     17  C   UNL     1     -48.040 -29.079 -60.673  0.00  0.00    +0.000 C 
BRANCH  17  21
ATOM     18  C   UNL     1     -49.835 -33.740 -62.033  0.00  0.00    +0.000 C 
ATOM     19  C   UNL     1     -49.482 -32.332 -61.751  0.00  0.00    +0.000 A 
ATOM     20  C   UNL     1     -48.553 -31.700 -60.956  0.00  0.00    +0.000 A 
ATOM     21  C   UNL     1     -48.747 -30.308 -61.192  0.00  0.00    +0.000 A 
ATOM     22  N   UNL     1     -49.754 -30.131 -62.065  0.00  0.00    +0.000 NA
ATOM     23  O   UNL     1     -50.204 -31.391 -62.412  0.00  0.00    +0.000 OA
ENDBRANCH  17  21
ENDBRANCH  15  17
ENDBRANCH   1  15
BRANCH  13  24
ATOM     24  C   UNL     1     -50.425 -24.634 -61.314  0.00  0.00    +0.000 C 
ATOM     25  O   UNL     1     -51.646 -24.784 -61.291  0.00  0.00    +0.000 OA
BRANCH  24  26
ATOM     26  C   UNL     1     -49.791 -23.522 -60.477  0.00  0.00    +0.000 C 
ATOM     27  C   UNL     1     -50.150 -23.650 -58.999  0.00  0.00    +0.000 C 
ATOM     28  C   UNL     1     -48.270 -23.472 -60.652  0.00  0.00    +0.000 C 
ENDBRANCH  24  26
ENDBRANCH  13  24
TORSDOF 5
