REMARK VINA RESULT:    -5.580      8.339     11.409
REMARK INTER + INTRA:          -8.338
REMARK INTER:                  -7.263
REMARK INTRA:                  -1.075
REMARK UNBOUND:                -1.127
REMARK  Name = 
REMARK  8 active torsions:
REMARK  status: ('A' for Active; 'I' for Inactive)
REMARK    1  A    between atoms: C_1  and  C_2
REMARK    2  A    between atoms: C_4  and  C_5
REMARK    3  A    between atoms: C_5  and  S_6
REMARK    4  A    between atoms: S_6  and  C_8
REMARK    5  A    between atoms: C_20  and  C_21
REMARK    6  A    between atoms: C_21  and  C_23
REMARK    7  A    between atoms: C_23  and  C_24
REMARK    8  A    between atoms: C_23  and  C_25
REMARK                            x       y       z     vdW  Elec       q    Type
REMARK                         _______ _______ _______ _____ _____    ______ ____
ROOT
ATOM      1  C   UNL     1     -57.121 -31.546 -61.099  0.00  0.00    +0.000 A 
ATOM      2  N   UNL     1     -55.989 -32.091 -60.501  0.00  0.00    +0.000 N 
ATOM      3  C   UNL     1     -55.231 -33.096 -61.133  0.00  0.00    +0.000 A 
ATOM      4  C   UNL     1     -53.897 -33.364 -60.776  0.00  0.00    +0.000 A 
ATOM      5 BR   UNL     1     -52.983 -32.270 -59.525  0.00  0.00    +0.000 Br
ATOM      6  C   UNL     1     -53.193 -34.419 -61.364  0.00  0.00    +0.000 A 
ATOM      7  C   UNL     1     -53.811 -35.218 -62.321  0.00  0.00    +0.000 A 
ATOM      8  C   UNL     1     -55.142 -34.962 -62.698  0.00  0.00    +0.000 A 
ATOM      9 CL   UNL     1     -55.777 -35.973 -63.945  0.00  0.00    +0.000 Cl
ATOM     10  C   UNL     1     -55.854 -33.903 -62.099  0.00  0.00    +0.000 A 
ATOM     11  C   UNL     1     -57.271 -33.572 -62.404  0.00  0.00    +0.000 A 
ATOM     12  O   UNL     1     -58.020 -34.433 -62.854  0.00  0.00    +0.000 OA
ATOM     13  C   UNL     1     -57.765 -32.156 -62.123  0.00  0.00    +0.000 A 
ATOM     14  H   UNL     1     -55.461 -31.423 -59.923  0.00  0.00    +0.000 HD
ENDROOT
BRANCH   1  15
ATOM     15  S   UNL     1     -57.462 -29.856 -60.477  0.00  0.00    +0.000 S 
ATOM     16  O   UNL     1     -56.120 -29.179 -60.524  0.00  0.00    +0.000 OA
BRANCH  15  17
ATOM     17  C   UNL     1     -57.909 -30.135 -58.730  0.00  0.00    +0.000 C 
BRANCH  17  21
ATOM     18  C   UNL     1     -53.697 -30.640 -55.763  0.00  0.00    +0.000 C 
ATOM     19  C   UNL     1     -54.934 -30.696 -56.573  0.00  0.00    +0.000 A 
ATOM     20  C   UNL     1     -55.714 -29.770 -57.226  0.00  0.00    +0.000 A 
ATOM     21  C   UNL     1     -56.753 -30.527 -57.841  0.00  0.00    +0.000 A 
ATOM     22  N   UNL     1     -56.602 -31.830 -57.545  0.00  0.00    +0.000 NA
ATOM     23  O   UNL     1     -55.469 -31.930 -56.761  0.00  0.00    +0.000 OA
ENDBRANCH  17  21
ENDBRANCH  15  17
ENDBRANCH   1  15
BRANCH  13  24
ATOM     24  C   UNL     1     -58.852 -31.624 -63.030  0.00  0.00    +0.000 C 
ATOM     25  O   UNL     1     -60.029 -31.918 -62.824  0.00  0.00    +0.000 OA
BRANCH  24  26
ATOM     26  C   UNL     1     -58.494 -30.771 -64.248  0.00  0.00    +0.000 C 
ATOM     27  C   UNL     1     -59.392 -31.083 -65.442  0.00  0.00    +0.000 C 
ATOM     28  C   UNL     1     -58.534 -29.274 -63.930  0.00  0.00    +0.000 C 
ENDBRANCH  24  26
ENDBRANCH  13  24
TORSDOF 5
