REMARK VINA RESULT:    -7.836      0.000      0.000
REMARK INTER + INTRA:         -10.886
REMARK INTER:                 -10.126
REMARK INTRA:                  -0.760
REMARK UNBOUND:                -0.760
REMARK  Name = 
REMARK  8 active torsions:
REMARK  status: ('A' for Active; 'I' for Inactive)
REMARK    1  A    between atoms: C_1  and  C_2
REMARK    2  A    between atoms: C_4  and  C_5
REMARK    3  A    between atoms: C_5  and  S_6
REMARK    4  A    between atoms: S_6  and  C_8
REMARK    5  A    between atoms: C_20  and  C_21
REMARK    6  A    between atoms: C_21  and  C_23
REMARK    7  A    between atoms: C_23  and  C_24
REMARK    8  A    between atoms: C_23  and  C_25
REMARK                            x       y       z     vdW  Elec       q    Type
REMARK                         _______ _______ _______ _____ _____    ______ ____
ROOT
ATOM      1  C   UNL     1     -55.587 -41.438 -63.564  0.00  0.00    +0.000 A 
ATOM      2  N   UNL     1     -54.259 -41.095 -63.800  0.00  0.00    +0.000 N 
ATOM      3  C   UNL     1     -53.243 -42.070 -63.855  0.00  0.00    +0.000 A 
ATOM      4  C   UNL     1     -52.008 -41.829 -64.486  0.00  0.00    +0.000 A 
ATOM      5 BR   UNL     1     -51.700 -40.224 -65.448  0.00  0.00    +0.000 Br
ATOM      6  C   UNL     1     -50.989 -42.785 -64.459  0.00  0.00    +0.000 A 
ATOM      7  C   UNL     1     -51.190 -43.997 -63.804  0.00  0.00    +0.000 A 
ATOM      8  C   UNL     1     -52.420 -44.260 -63.173  0.00  0.00    +0.000 A 
ATOM      9 CL   UNL     1     -52.577 -45.823 -62.456  0.00  0.00    +0.000 Cl
ATOM     10  C   UNL     1     -53.446 -43.292 -63.195  0.00  0.00    +0.000 A 
ATOM     11  C   UNL     1     -54.765 -43.460 -62.532  0.00  0.00    +0.000 A 
ATOM     12  O   UNL     1     -54.885 -44.237 -61.589  0.00  0.00    +0.000 OA
ATOM     13  C   UNL     1     -55.944 -42.633 -63.036  0.00  0.00    +0.000 A 
ATOM     14  H   UNL     1     -54.142 -40.285 -64.423  0.00  0.00    +0.000 HD
ENDROOT
BRANCH   1  15
ATOM     15  S   UNL     1     -56.736 -40.185 -64.248  0.00  0.00    +0.000 S 
ATOM     16  O   UNL     1     -57.390 -39.593 -63.029  0.00  0.00    +0.000 OA
BRANCH  15  17
ATOM     17  C   UNL     1     -57.973 -41.191 -65.136  0.00  0.00    +0.000 C 
BRANCH  17  21
ATOM     18  C   UNL     1     -55.559 -42.781 -69.431  0.00  0.00    +0.000 C 
ATOM     19  C   UNL     1     -56.418 -42.414 -68.284  0.00  0.00    +0.000 A 
ATOM     20  C   UNL     1     -56.205 -41.848 -67.048  0.00  0.00    +0.000 A 
ATOM     21  C   UNL     1     -57.497 -41.750 -66.456  0.00  0.00    +0.000 A 
ATOM     22  N   UNL     1     -58.420 -42.254 -67.294  0.00  0.00    +0.000 NA
ATOM     23  O   UNL     1     -57.746 -42.661 -68.429  0.00  0.00    +0.000 OA
ENDBRANCH  17  21
ENDBRANCH  15  17
ENDBRANCH   1  15
BRANCH  13  24
ATOM     24  C   UNL     1     -57.315 -43.262 -62.918  0.00  0.00    +0.000 C 
ATOM     25  O   UNL     1     -57.645 -44.174 -63.675  0.00  0.00    +0.000 OA
BRANCH  24  26
ATOM     26  C   UNL     1     -58.326 -42.727 -61.904  0.00  0.00    +0.000 C 
ATOM     27  C   UNL     1     -59.454 -43.723 -61.649  0.00  0.00    +0.000 C 
ATOM     28  C   UNL     1     -57.658 -42.332 -60.584  0.00  0.00    +0.000 C 
ENDBRANCH  24  26
ENDBRANCH  13  24
TORSDOF 5
