REMARK VINA RESULT:    -6.054     11.809     14.368
REMARK INTER + INTRA:          -8.459
REMARK INTER:                  -7.301
REMARK INTRA:                  -1.158
REMARK UNBOUND:                -0.635
REMARK  Name = 
REMARK  6 active torsions:
REMARK  status: ('A' for Active; 'I' for Inactive)
REMARK    1  A    between atoms: C_1  and  C_2
REMARK    2  A    between atoms: C_4  and  C_5
REMARK    3  A    between atoms: C_5  and  S_6
REMARK    4  A    between atoms: S_6  and  C_8
REMARK    5  A    between atoms: C_20  and  C_21
REMARK    6  A    between atoms: C_21  and  C_23
REMARK                            x       y       z     vdW  Elec       q    Type
REMARK                         _______ _______ _______ _____ _____    ______ ____
ROOT
ATOM      1  C   UNL     1     -56.469 -41.344 -78.995  0.00  0.00    +0.000 A 
ATOM      2  N   UNL     1     -55.640 -41.567 -80.111  0.00  0.00    +0.000 N 
ATOM      3  C   UNL     1     -54.249 -41.809 -79.942  0.00  0.00    +0.000 A 
ATOM      4  C   UNL     1     -53.449 -42.412 -80.930  0.00  0.00    +0.000 A 
ATOM      5 BR   UNL     1     -54.216 -43.119 -82.514  0.00  0.00    +0.000 Br
ATOM      6  C   UNL     1     -52.062 -42.532 -80.766  0.00  0.00    +0.000 A 
ATOM      7  C   UNL     1     -51.461 -42.070 -79.590  0.00  0.00    +0.000 A 
ATOM      8  C   UNL     1     -52.234 -41.470 -78.595  0.00  0.00    +0.000 A 
ATOM      9 CL   UNL     1     -51.408 -41.000 -77.153  0.00  0.00    +0.000 Cl
ATOM     10  C   UNL     1     -53.616 -41.324 -78.786  0.00  0.00    +0.000 A 
ATOM     11  C   UNL     1     -54.499 -40.628 -77.831  0.00  0.00    +0.000 A 
ATOM     12  O   UNL     1     -54.095 -39.707 -77.132  0.00  0.00    +0.000 OA
ATOM     13  C   UNL     1     -55.945 -41.026 -77.790  0.00  0.00    +0.000 A 
ATOM     14  H   UNL     1     -56.085 -42.177 -80.810  0.00  0.00    +0.000 HD
ENDROOT
BRANCH   1  15
ATOM     15  S   UNL     1     -58.157 -41.954 -79.248  0.00  0.00    +0.000 S 
ATOM     16  O   UNL     1     -58.870 -41.611 -77.968  0.00  0.00    +0.000 OA
BRANCH  15  17
ATOM     17  C   UNL     1     -58.132 -43.765 -79.388  0.00  0.00    +0.000 C 
BRANCH  17  21
ATOM     18  C   UNL     1     -54.504 -46.329 -76.841  0.00  0.00    +0.000 C 
ATOM     19  C   UNL     1     -55.677 -45.640 -77.412  0.00  0.00    +0.000 A 
ATOM     20  C   UNL     1     -55.892 -44.852 -78.518  0.00  0.00    +0.000 A 
ATOM     21  C   UNL     1     -57.283 -44.607 -78.513  0.00  0.00    +0.000 A 
ATOM     22  N   UNL     1     -57.856 -45.157 -77.429  0.00  0.00    +0.000 NA
ATOM     23  O   UNL     1     -56.847 -45.804 -76.745  0.00  0.00    +0.000 OA
ENDBRANCH  17  21
ENDBRANCH  15  17
ENDBRANCH   1  15
BRANCH  13  24
ATOM     24  C   UNL     1     -56.489 -41.166 -76.410  0.00  0.00    +0.000 C 
ATOM     25  O   UNL     1     -57.143 -40.268 -75.908  0.00  0.00    +0.000 OA
BRANCH  24  26
ATOM     26  C   UNL     1     -56.264 -42.428 -75.680  0.00  0.00    +0.000 C 
ATOM     27  C   UNL     1     -56.269 -42.424 -74.173  0.00  0.00    +0.000 C 
ATOM     28  C   UNL     1     -54.987 -42.669 -74.910  0.00  0.00    +0.000 C 
ENDBRANCH  24  26
ENDBRANCH  13  24
TORSDOF 5
