REMARK VINA RESULT:    -5.332     10.766     13.702
REMARK INTER + INTRA:          -7.590
REMARK INTER:                  -5.948
REMARK INTRA:                  -1.642
REMARK UNBOUND:                -0.699
REMARK  Name = 
REMARK  8 active torsions:
REMARK  status: ('A' for Active; 'I' for Inactive)
REMARK    1  A    between atoms: C_1  and  C_2
REMARK    2  A    between atoms: C_4  and  C_5
REMARK    3  A    between atoms: C_5  and  S_6
REMARK    4  A    between atoms: S_6  and  C_8
REMARK    5  A    between atoms: C_20  and  C_21
REMARK    6  A    between atoms: C_21  and  C_23
REMARK    7  A    between atoms: C_23  and  C_24
REMARK    8  A    between atoms: C_23  and  C_25
REMARK                            x       y       z     vdW  Elec       q    Type
REMARK                         _______ _______ _______ _____ _____    ______ ____
ROOT
ATOM      1  C   UNL     1     -65.366 -40.809 -68.939  0.00  0.00    +0.000 A 
ATOM      2  N   UNL     1     -66.606 -40.400 -68.458  0.00  0.00    +0.000 N 
ATOM      3  C   UNL     1     -67.748 -40.382 -69.282  0.00  0.00    +0.000 A 
ATOM      4  C   UNL     1     -69.053 -40.384 -68.753  0.00  0.00    +0.000 A 
ATOM      5 BR   UNL     1     -69.351 -40.577 -66.890  0.00  0.00    +0.000 Br
ATOM      6  C   UNL     1     -70.168 -40.287 -69.591  0.00  0.00    +0.000 A 
ATOM      7  C   UNL     1     -69.995 -40.192 -70.969  0.00  0.00    +0.000 A 
ATOM      8  C   UNL     1     -68.700 -40.195 -71.518  0.00  0.00    +0.000 A 
ATOM      9 CL   UNL     1     -68.614 -40.144 -73.241  0.00  0.00    +0.000 Cl
ATOM     10  C   UNL     1     -67.575 -40.286 -70.672  0.00  0.00    +0.000 A 
ATOM     11  C   UNL     1     -66.168 -40.265 -71.150  0.00  0.00    +0.000 A 
ATOM     12  O   UNL     1     -65.892 -39.747 -72.228  0.00  0.00    +0.000 OA
ATOM     13  C   UNL     1     -65.088 -40.877 -70.262  0.00  0.00    +0.000 A 
ATOM     14  H   UNL     1     -66.766 -40.631 -67.468  0.00  0.00    +0.000 HD
ENDROOT
BRANCH   1  15
ATOM     15  S   UNL     1     -64.292 -41.426 -67.588  0.00  0.00    +0.000 S 
ATOM     16  O   UNL     1     -62.903 -41.067 -68.040  0.00  0.00    +0.000 OA
BRANCH  15  17
ATOM     17  C   UNL     1     -64.484 -43.238 -67.695  0.00  0.00    +0.000 C 
BRANCH  17  21
ATOM     18  C   UNL     1     -68.972 -45.116 -69.465  0.00  0.00    +0.000 C 
ATOM     19  C   UNL     1     -67.796 -44.525 -68.790  0.00  0.00    +0.000 A 
ATOM     20  C   UNL     1     -66.447 -44.464 -69.058  0.00  0.00    +0.000 A 
ATOM     21  C   UNL     1     -65.891 -43.704 -67.988  0.00  0.00    +0.000 A 
ATOM     22  N   UNL     1     -66.861 -43.356 -67.125  0.00  0.00    +0.000 NA
ATOM     23  O   UNL     1     -68.042 -43.865 -67.629  0.00  0.00    +0.000 OA
ENDBRANCH  17  21
ENDBRANCH  15  17
ENDBRANCH   1  15
BRANCH  13  24
ATOM     24  C   UNL     1     -63.902 -41.498 -70.966  0.00  0.00    +0.000 C 
ATOM     25  O   UNL     1     -62.938 -40.803 -71.285  0.00  0.00    +0.000 OA
BRANCH  24  26
ATOM     26  C   UNL     1     -63.918 -42.979 -71.348  0.00  0.00    +0.000 C 
ATOM     27  C   UNL     1     -64.202 -43.177 -72.835  0.00  0.00    +0.000 C 
ATOM     28  C   UNL     1     -62.617 -43.685 -70.957  0.00  0.00    +0.000 C 
ENDBRANCH  24  26
ENDBRANCH  13  24
TORSDOF 5
