MODEL 1
REMARK VINA RESULT:    -7.496      0.000      0.000
REMARK INTER + INTRA:         -10.563
REMARK INTER:                  -9.687
REMARK INTRA:                  -0.876
REMARK UNBOUND:                -0.876
REMARK  Name = 
REMARK  6 active torsions:
REMARK  status: ('A' for Active; 'I' for Inactive)
REMARK    1  A    between atoms: C_1  and  C_2
REMARK    2  A    between atoms: C_4  and  C_5
REMARK    3  A    between atoms: C_5  and  S_6
REMARK    4  A    between atoms: S_6  and  C_8
REMARK    5  A    between atoms: C_20  and  C_21
REMARK    6  A    between atoms: C_21  and  C_23
REMARK                            x       y       z     vdW  Elec       q    Type
REMARK                         _______ _______ _______ _____ _____    ______ ____
ROOT
ATOM      1  C   UNL     1     -55.870 -42.738 -76.749  0.00  0.00    +0.000 A 
ATOM      2  N   UNL     1     -54.558 -43.127 -76.416  0.00  0.00    +0.000 N 
ATOM      3  C   UNL     1     -53.522 -42.159 -76.306  0.00  0.00    +0.000 A 
ATOM      4  C   UNL     1     -52.318 -42.396 -75.616  0.00  0.00    +0.000 A 
ATOM      5 BR   UNL     1     -52.061 -43.988 -74.616  0.00  0.00    +0.000 Br
ATOM      6  C   UNL     1     -51.279 -41.456 -75.626  0.00  0.00    +0.000 A 
ATOM      7  C   UNL     1     -51.446 -40.246 -76.309  0.00  0.00    +0.000 A 
ATOM      8  C   UNL     1     -52.631 -39.987 -76.998  0.00  0.00    +0.000 A 
ATOM      9 CL   UNL     1     -52.767 -38.437 -77.747  0.00  0.00    +0.000 Cl
ATOM     10  C   UNL     1     -53.650 -40.951 -77.011  0.00  0.00    +0.000 A 
ATOM     11  C   UNL     1     -54.900 -40.803 -77.781  0.00  0.00    +0.000 A 
ATOM     12  O   UNL     1     -54.942 -40.167 -78.827  0.00  0.00    +0.000 OA
ATOM     13  C   UNL     1     -56.120 -41.524 -77.288  0.00  0.00    +0.000 A 
ATOM     14  H   UNL     1     -54.539 -43.839 -75.673  0.00  0.00    +0.000 HD
ENDROOT
BRANCH   1  15
ATOM     15  S   UNL     1     -57.125 -43.797 -75.984  0.00  0.00    +0.000 S 
ATOM     16  O   UNL     1     -57.930 -44.314 -77.145  0.00  0.00    +0.000 OA
BRANCH  15  17
ATOM     17  C   UNL     1     -58.235 -42.783 -74.963  0.00  0.00    +0.000 C 
BRANCH  17  21
ATOM     18  C   UNL     1     -55.922 -40.967 -70.771  0.00  0.00    +0.000 C 
ATOM     19  C   UNL     1     -56.688 -41.302 -71.986  0.00  0.00    +0.000 A 
ATOM     20  C   UNL     1     -56.703 -42.366 -72.857  0.00  0.00    +0.000 A 
ATOM     21  C   UNL     1     -57.757 -42.076 -73.752  0.00  0.00    +0.000 A 
ATOM     22  N   UNL     1     -58.293 -40.875 -73.476  0.00  0.00    +0.000 NA
ATOM     23  O   UNL     1     -57.622 -40.396 -72.370  0.00  0.00    +0.000 OA
ENDBRANCH  17  21
ENDBRANCH  15  17
ENDBRANCH   1  15
BRANCH  13  24
ATOM     24  C   UNL     1     -57.360 -40.699 -77.326  0.00  0.00    +0.000 C 
ATOM     25  O   UNL     1     -57.546 -39.820 -76.502  0.00  0.00    +0.000 OA
BRANCH  24  26
ATOM     26  C   UNL     1     -58.337 -40.933 -78.407  0.00  0.00    +0.000 C 
ATOM     27  C   UNL     1     -59.641 -40.176 -78.404  0.00  0.00    +0.000 C 
ATOM     28  C   UNL     1     -59.639 -41.652 -78.143  0.00  0.00    +0.000 C 
ENDBRANCH  24  26
ENDBRANCH  13  24
TORSDOF 5
ENDMDL
MODEL 2
REMARK VINA RESULT:    -7.340      8.834     12.824
REMARK INTER + INTRA:         -10.361
REMARK INTER:                  -9.620
REMARK INTRA:                  -0.741
REMARK UNBOUND:                -0.876
REMARK  Name = 
REMARK  6 active torsions:
REMARK  status: ('A' for Active; 'I' for Inactive)
REMARK    1  A    between atoms: C_1  and  C_2
REMARK    2  A    between atoms: C_4  and  C_5
REMARK    3  A    between atoms: C_5  and  S_6
REMARK    4  A    between atoms: S_6  and  C_8
REMARK    5  A    between atoms: C_20  and  C_21
REMARK    6  A    between atoms: C_21  and  C_23
REMARK                            x       y       z     vdW  Elec       q    Type
REMARK                         _______ _______ _______ _____ _____    ______ ____
ROOT
ATOM      1  C   UNL     1     -55.787 -41.281 -63.418  0.00  0.00    +0.000 A 
ATOM      2  N   UNL     1     -54.434 -40.987 -63.675  0.00  0.00    +0.000 N 
ATOM      3  C   UNL     1     -53.464 -42.026 -63.725  0.00  0.00    +0.000 A 
ATOM      4  C   UNL     1     -52.209 -41.876 -64.343  0.00  0.00    +0.000 A 
ATOM      5 BR   UNL     1     -51.783 -40.311 -65.326  0.00  0.00    +0.000 Br
ATOM      6  C   UNL     1     -51.241 -42.888 -64.274  0.00  0.00    +0.000 A 
ATOM      7  C   UNL     1     -51.533 -44.081 -63.603  0.00  0.00    +0.000 A 
ATOM      8  C   UNL     1     -52.771 -44.253 -62.983  0.00  0.00    +0.000 A 
ATOM      9 CL   UNL     1     -53.059 -45.787 -62.244  0.00  0.00    +0.000 Cl
ATOM     10  C   UNL     1     -53.718 -43.219 -63.029  0.00  0.00    +0.000 A 
ATOM     11  C   UNL     1     -55.018 -43.276 -62.333  0.00  0.00    +0.000 A 
ATOM     12  O   UNL     1     -55.165 -43.904 -61.292  0.00  0.00    +0.000 OA
ATOM     13  C   UNL     1     -56.153 -42.472 -62.895  0.00  0.00    +0.000 A 
ATOM     14  H   UNL     1     -54.322 -40.281 -64.415  0.00  0.00    +0.000 HD
ENDROOT
BRANCH   1  15
ATOM     15  S   UNL     1     -56.918 -40.139 -64.254  0.00  0.00    +0.000 S 
ATOM     16  O   UNL     1     -57.707 -39.515 -63.135  0.00  0.00    +0.000 OA
BRANCH  15  17
ATOM     17  C   UNL     1     -58.083 -41.081 -65.281  0.00  0.00    +0.000 C 
BRANCH  17  21
ATOM     18  C   UNL     1     -55.821 -43.277 -69.316  0.00  0.00    +0.000 C 
ATOM     19  C   UNL     1     -56.656 -42.710 -68.241  0.00  0.00    +0.000 A 
ATOM     20  C   UNL     1     -56.398 -42.089 -67.042  0.00  0.00    +0.000 A 
ATOM     21  C   UNL     1     -57.670 -41.713 -66.555  0.00  0.00    +0.000 A 
ATOM     22  N   UNL     1     -58.638 -42.147 -67.382  0.00  0.00    +0.000 NA
ATOM     23  O   UNL     1     -57.998 -42.768 -68.434  0.00  0.00    +0.000 OA
ENDBRANCH  17  21
ENDBRANCH  15  17
ENDBRANCH   1  15
BRANCH  13  24
ATOM     24  C   UNL     1     -57.449 -43.208 -62.930  0.00  0.00    +0.000 C 
ATOM     25  O   UNL     1     -57.554 -44.250 -63.553  0.00  0.00    +0.000 OA
BRANCH  24  26
ATOM     26  C   UNL     1     -58.588 -42.677 -62.157  0.00  0.00    +0.000 C 
ATOM     27  C   UNL     1     -58.450 -42.486 -60.669  0.00  0.00    +0.000 C 
ATOM     28  C   UNL     1     -59.359 -43.553 -61.198  0.00  0.00    +0.000 C 
ENDBRANCH  24  26
ENDBRANCH  13  24
TORSDOF 5
ENDMDL
MODEL 3
REMARK VINA RESULT:    -7.243     10.166     12.541
REMARK INTER + INTRA:         -10.236
REMARK INTER:                  -9.331
REMARK INTRA:                  -0.905
REMARK UNBOUND:                -0.876
REMARK  Name = 
REMARK  6 active torsions:
REMARK  status: ('A' for Active; 'I' for Inactive)
REMARK    1  A    between atoms: C_1  and  C_2
REMARK    2  A    between atoms: C_4  and  C_5
REMARK    3  A    between atoms: C_5  and  S_6
REMARK    4  A    between atoms: S_6  and  C_8
REMARK    5  A    between atoms: C_20  and  C_21
REMARK    6  A    between atoms: C_21  and  C_23
REMARK                            x       y       z     vdW  Elec       q    Type
REMARK                         _______ _______ _______ _____ _____    ______ ____
ROOT
ATOM      1  C   UNL     1     -55.475 -42.030 -63.195  0.00  0.00    +0.000 A 
ATOM      2  N   UNL     1     -54.696 -43.203 -63.186  0.00  0.00    +0.000 N 
ATOM      3  C   UNL     1     -53.305 -43.150 -63.474  0.00  0.00    +0.000 A 
ATOM      4  C   UNL     1     -52.406 -44.171 -63.112  0.00  0.00    +0.000 A 
ATOM      5 BR   UNL     1     -52.965 -45.633 -62.040  0.00  0.00    +0.000 Br
ATOM      6  C   UNL     1     -51.063 -44.130 -63.512  0.00  0.00    +0.000 A 
ATOM      7  C   UNL     1     -50.596 -43.043 -64.260  0.00  0.00    +0.000 A 
ATOM      8  C   UNL     1     -51.468 -42.018 -64.629  0.00  0.00    +0.000 A 
ATOM      9 CL   UNL     1     -50.778 -40.689 -65.489  0.00  0.00    +0.000 Cl
ATOM     10  C   UNL     1     -52.818 -42.089 -64.253  0.00  0.00    +0.000 A 
ATOM     11  C   UNL     1     -53.829 -41.098 -64.668  0.00  0.00    +0.000 A 
ATOM     12  O   UNL     1     -53.743 -40.495 -65.731  0.00  0.00    +0.000 OA
ATOM     13  C   UNL     1     -55.025 -40.900 -63.784  0.00  0.00    +0.000 A 
ATOM     14  H   UNL     1     -54.933 -43.822 -62.398  0.00  0.00    +0.000 HD
ENDROOT
BRANCH   1  15
ATOM     15  S   UNL     1     -56.838 -42.089 -62.001  0.00  0.00    +0.000 S 
ATOM     16  O   UNL     1     -56.599 -43.360 -61.232  0.00  0.00    +0.000 OA
BRANCH  15  17
ATOM     17  C   UNL     1     -58.413 -42.277 -62.887  0.00  0.00    +0.000 C 
BRANCH  17  21
ATOM     18  C   UNL     1     -58.950 -42.572 -67.971  0.00  0.00    +0.000 C 
ATOM     19  C   UNL     1     -58.664 -42.654 -66.526  0.00  0.00    +0.000 A 
ATOM     20  C   UNL     1     -58.995 -41.892 -65.430  0.00  0.00    +0.000 A 
ATOM     21  C   UNL     1     -58.465 -42.603 -64.331  0.00  0.00    +0.000 A 
ATOM     22  N   UNL     1     -57.794 -43.690 -64.751  0.00  0.00    +0.000 NA
ATOM     23  O   UNL     1     -57.924 -43.718 -66.124  0.00  0.00    +0.000 OA
ENDBRANCH  17  21
ENDBRANCH  15  17
ENDBRANCH   1  15
BRANCH  13  24
ATOM     24  C   UNL     1     -55.390 -39.469 -63.581  0.00  0.00    +0.000 C 
ATOM     25  O   UNL     1     -56.544 -39.100 -63.713  0.00  0.00    +0.000 OA
BRANCH  24  26
ATOM     26  C   UNL     1     -54.340 -38.518 -63.172  0.00  0.00    +0.000 C 
ATOM     27  C   UNL     1     -54.721 -37.109 -62.797  0.00  0.00    +0.000 C 
ATOM     28  C   UNL     1     -53.946 -37.358 -64.055  0.00  0.00    +0.000 C 
ENDBRANCH  24  26
ENDBRANCH  13  24
TORSDOF 5
ENDMDL
MODEL 4
REMARK VINA RESULT:    -6.861     11.968     13.545
REMARK INTER + INTRA:          -9.742
REMARK INTER:                  -8.960
REMARK INTRA:                  -0.782
REMARK UNBOUND:                -0.876
REMARK  Name = 
REMARK  6 active torsions:
REMARK  status: ('A' for Active; 'I' for Inactive)
REMARK    1  A    between atoms: C_1  and  C_2
REMARK    2  A    between atoms: C_4  and  C_5
REMARK    3  A    between atoms: C_5  and  S_6
REMARK    4  A    between atoms: S_6  and  C_8
REMARK    5  A    between atoms: C_20  and  C_21
REMARK    6  A    between atoms: C_21  and  C_23
REMARK                            x       y       z     vdW  Elec       q    Type
REMARK                         _______ _______ _______ _____ _____    ______ ____
ROOT
ATOM      1  C   UNL     1     -55.449 -41.258 -63.425  0.00  0.00    +0.000 A 
ATOM      2  N   UNL     1     -54.088 -41.020 -63.694  0.00  0.00    +0.000 N 
ATOM      3  C   UNL     1     -53.169 -42.101 -63.791  0.00  0.00    +0.000 A 
ATOM      4  C   UNL     1     -51.918 -41.991 -64.426  0.00  0.00    +0.000 A 
ATOM      5 BR   UNL     1     -51.433 -40.418 -65.369  0.00  0.00    +0.000 Br
ATOM      6  C   UNL     1     -50.998 -43.049 -64.403  0.00  0.00    +0.000 A 
ATOM      7  C   UNL     1     -51.335 -44.247 -63.763  0.00  0.00    +0.000 A 
ATOM      8  C   UNL     1     -52.571 -44.380 -63.129  0.00  0.00    +0.000 A 
ATOM      9 CL   UNL     1     -52.920 -45.920 -62.431  0.00  0.00    +0.000 Cl
ATOM     10  C   UNL     1     -53.468 -43.301 -63.128  0.00  0.00    +0.000 A 
ATOM     11  C   UNL     1     -54.759 -43.319 -62.412  0.00  0.00    +0.000 A 
ATOM     12  O   UNL     1     -54.919 -43.971 -61.388  0.00  0.00    +0.000 OA
ATOM     13  C   UNL     1     -55.863 -42.446 -62.931  0.00  0.00    +0.000 A 
ATOM     14  H   UNL     1     -53.954 -40.297 -64.415  0.00  0.00    +0.000 HD
ENDROOT
BRANCH   1  15
ATOM     15  S   UNL     1     -56.538 -40.038 -64.207  0.00  0.00    +0.000 S 
ATOM     16  O   UNL     1     -57.068 -40.744 -65.425  0.00  0.00    +0.000 OA
BRANCH  15  17
ATOM     17  C   UNL     1     -55.551 -38.626 -64.783  0.00  0.00    +0.000 C 
BRANCH  17  21
ATOM     18  C   UNL     1     -54.401 -34.366 -62.186  0.00  0.00    +0.000 C 
ATOM     19  C   UNL     1     -54.684 -35.697 -62.754  0.00  0.00    +0.000 A 
ATOM     20  C   UNL     1     -55.188 -36.150 -63.950  0.00  0.00    +0.000 A 
ATOM     21  C   UNL     1     -55.101 -37.557 -63.862  0.00  0.00    +0.000 A 
ATOM     22  N   UNL     1     -54.637 -37.926 -62.655  0.00  0.00    +0.000 NA
ATOM     23  O   UNL     1     -54.377 -36.759 -61.968  0.00  0.00    +0.000 OA
ENDBRANCH  17  21
ENDBRANCH  15  17
ENDBRANCH   1  15
BRANCH  13  24
ATOM     24  C   UNL     1     -57.193 -43.119 -62.966  0.00  0.00    +0.000 C 
ATOM     25  O   UNL     1     -57.346 -44.158 -63.585  0.00  0.00    +0.000 OA
BRANCH  24  26
ATOM     26  C   UNL     1     -58.307 -42.530 -62.200  0.00  0.00    +0.000 C 
ATOM     27  C   UNL     1     -58.276 -42.575 -60.694  0.00  0.00    +0.000 C 
ATOM     28  C   UNL     1     -59.280 -43.401 -61.440  0.00  0.00    +0.000 C 
ENDBRANCH  24  26
ENDBRANCH  13  24
TORSDOF 5
ENDMDL
MODEL 5
REMARK VINA RESULT:    -6.795     12.069     14.030
REMARK INTER + INTRA:          -9.658
REMARK INTER:                  -8.595
REMARK INTRA:                  -1.063
REMARK UNBOUND:                -0.876
REMARK  Name = 
REMARK  6 active torsions:
REMARK  status: ('A' for Active; 'I' for Inactive)
REMARK    1  A    between atoms: C_1  and  C_2
REMARK    2  A    between atoms: C_4  and  C_5
REMARK    3  A    between atoms: C_5  and  S_6
REMARK    4  A    between atoms: S_6  and  C_8
REMARK    5  A    between atoms: C_20  and  C_21
REMARK    6  A    between atoms: C_21  and  C_23
REMARK                            x       y       z     vdW  Elec       q    Type
REMARK                         _______ _______ _______ _____ _____    ______ ____
ROOT
ATOM      1  C   UNL     1     -56.428 -42.638 -62.875  0.00  0.00    +0.000 A 
ATOM      2  N   UNL     1     -55.400 -43.599 -62.938  0.00  0.00    +0.000 N 
ATOM      3  C   UNL     1     -54.072 -43.216 -63.271  0.00  0.00    +0.000 A 
ATOM      4  C   UNL     1     -52.948 -44.012 -62.981  0.00  0.00    +0.000 A 
ATOM      5 BR   UNL     1     -53.109 -45.595 -61.949  0.00  0.00    +0.000 Br
ATOM      6  C   UNL     1     -51.668 -43.649 -63.424  0.00  0.00    +0.000 A 
ATOM      7  C   UNL     1     -51.496 -42.461 -64.145  0.00  0.00    +0.000 A 
ATOM      8  C   UNL     1     -52.595 -41.655 -64.443  0.00  0.00    +0.000 A 
ATOM      9 CL   UNL     1     -52.268 -40.177 -65.273  0.00  0.00    +0.000 Cl
ATOM     10  C   UNL     1     -53.876 -42.048 -64.024  0.00  0.00    +0.000 A 
ATOM     11  C   UNL     1     -55.105 -41.306 -64.366  0.00  0.00    +0.000 A 
ATOM     12  O   UNL     1     -55.205 -40.668 -65.406  0.00  0.00    +0.000 OA
ATOM     13  C   UNL     1     -56.275 -41.418 -63.434  0.00  0.00    +0.000 A 
ATOM     14  H   UNL     1     -55.455 -44.279 -62.168  0.00  0.00    +0.000 HD
ENDROOT
BRANCH   1  15
ATOM     15  S   UNL     1     -57.689 -43.048 -61.638  0.00  0.00    +0.000 S 
ATOM     16  O   UNL     1     -58.965 -42.499 -62.216  0.00  0.00    +0.000 OA
BRANCH  15  17
ATOM     17  C   UNL     1     -57.351 -42.137 -60.103  0.00  0.00    +0.000 C 
BRANCH  17  21
ATOM     18  C   UNL     1     -53.913 -43.004 -56.409  0.00  0.00    +0.000 C 
ATOM     19  C   UNL     1     -54.781 -42.881 -57.594  0.00  0.00    +0.000 A 
ATOM     20  C   UNL     1     -55.996 -42.287 -57.845  0.00  0.00    +0.000 A 
ATOM     21  C   UNL     1     -56.202 -42.472 -59.230  0.00  0.00    +0.000 A 
ATOM     22  N   UNL     1     -55.202 -43.197 -59.763  0.00  0.00    +0.000 NA
ATOM     23  O   UNL     1     -54.317 -43.448 -58.736  0.00  0.00    +0.000 OA
ENDBRANCH  17  21
ENDBRANCH  15  17
ENDBRANCH   1  15
BRANCH  13  24
ATOM     24  C   UNL     1     -56.951 -40.117 -63.163  0.00  0.00    +0.000 C 
ATOM     25  O   UNL     1     -58.115 -39.946 -63.481  0.00  0.00    +0.000 OA
BRANCH  24  26
ATOM     26  C   UNL     1     -56.202 -39.059 -62.459  0.00  0.00    +0.000 C 
ATOM     27  C   UNL     1     -56.818 -37.692 -62.304  0.00  0.00    +0.000 C 
ATOM     28  C   UNL     1     -55.635 -37.874 -63.205  0.00  0.00    +0.000 C 
ENDBRANCH  24  26
ENDBRANCH  13  24
TORSDOF 5
ENDMDL
MODEL 6
REMARK VINA RESULT:    -6.751     11.121     13.557
REMARK INTER + INTRA:          -9.600
REMARK INTER:                  -8.715
REMARK INTRA:                  -0.885
REMARK UNBOUND:                -0.876
REMARK  Name = 
REMARK  6 active torsions:
REMARK  status: ('A' for Active; 'I' for Inactive)
REMARK    1  A    between atoms: C_1  and  C_2
REMARK    2  A    between atoms: C_4  and  C_5
REMARK    3  A    between atoms: C_5  and  S_6
REMARK    4  A    between atoms: S_6  and  C_8
REMARK    5  A    between atoms: C_20  and  C_21
REMARK    6  A    between atoms: C_21  and  C_23
REMARK                            x       y       z     vdW  Elec       q    Type
REMARK                         _______ _______ _______ _____ _____    ______ ____
ROOT
ATOM      1  C   UNL     1     -57.806 -41.035 -62.766  0.00  0.00    +0.000 A 
ATOM      2  N   UNL     1     -57.323 -39.762 -62.406  0.00  0.00    +0.000 N 
ATOM      3  C   UNL     1     -56.213 -39.190 -63.086  0.00  0.00    +0.000 A 
ATOM      4  C   UNL     1     -55.924 -37.812 -63.061  0.00  0.00    +0.000 A 
ATOM      5 BR   UNL     1     -57.115 -36.577 -62.253  0.00  0.00    +0.000 Br
ATOM      6  C   UNL     1     -54.759 -37.305 -63.653  0.00  0.00    +0.000 A 
ATOM      7  C   UNL     1     -53.878 -38.176 -64.305  0.00  0.00    +0.000 A 
ATOM      8  C   UNL     1     -54.144 -39.544 -64.344  0.00  0.00    +0.000 A 
ATOM      9 CL   UNL     1     -53.034 -40.523 -65.234  0.00  0.00    +0.000 Cl
ATOM     10  C   UNL     1     -55.296 -40.044 -63.717  0.00  0.00    +0.000 A 
ATOM     11  C   UNL     1     -55.616 -41.482 -63.632  0.00  0.00    +0.000 A 
ATOM     12  O   UNL     1     -54.739 -42.337 -63.593  0.00  0.00    +0.000 OA
ATOM     13  C   UNL     1     -57.058 -41.876 -63.513  0.00  0.00    +0.000 A 
ATOM     14  H   UNL     1     -58.085 -39.094 -62.221  0.00  0.00    +0.000 HD
ENDROOT
BRANCH   1  15
ATOM     15  S   UNL     1     -59.595 -41.195 -62.524  0.00  0.00    +0.000 S 
ATOM     16  O   UNL     1     -60.089 -39.775 -62.468  0.00  0.00    +0.000 OA
BRANCH  15  17
ATOM     17  C   UNL     1     -59.922 -41.948 -60.903  0.00  0.00    +0.000 C 
BRANCH  17  21
ATOM     18  C   UNL     1     -61.592 -46.640 -59.715  0.00  0.00    +0.000 C 
ATOM     19  C   UNL     1     -61.050 -45.374 -60.242  0.00  0.00    +0.000 A 
ATOM     20  C   UNL     1     -61.028 -44.073 -59.800  0.00  0.00    +0.000 A 
ATOM     21  C   UNL     1     -60.254 -43.384 -60.760  0.00  0.00    +0.000 A 
ATOM     22  N   UNL     1     -59.894 -44.212 -61.756  0.00  0.00    +0.000 NA
ATOM     23  O   UNL     1     -60.393 -45.455 -61.427  0.00  0.00    +0.000 OA
ENDBRANCH  17  21
ENDBRANCH  15  17
ENDBRANCH   1  15
BRANCH  13  24
ATOM     24  C   UNL     1     -57.438 -43.027 -64.381  0.00  0.00    +0.000 C 
ATOM     25  O   UNL     1     -57.430 -44.164 -63.941  0.00  0.00    +0.000 OA
BRANCH  24  26
ATOM     26  C   UNL     1     -57.871 -42.761 -65.766  0.00  0.00    +0.000 C 
ATOM     27  C   UNL     1     -57.924 -43.896 -66.757  0.00  0.00    +0.000 C 
ATOM     28  C   UNL     1     -56.894 -42.819 -66.916  0.00  0.00    +0.000 C 
ENDBRANCH  24  26
ENDBRANCH  13  24
TORSDOF 5
ENDMDL
MODEL 7
REMARK VINA RESULT:    -6.584     11.671     13.405
REMARK INTER + INTRA:          -9.384
REMARK INTER:                  -8.429
REMARK INTRA:                  -0.955
REMARK UNBOUND:                -0.876
REMARK  Name = 
REMARK  6 active torsions:
REMARK  status: ('A' for Active; 'I' for Inactive)
REMARK    1  A    between atoms: C_1  and  C_2
REMARK    2  A    between atoms: C_4  and  C_5
REMARK    3  A    between atoms: C_5  and  S_6
REMARK    4  A    between atoms: S_6  and  C_8
REMARK    5  A    between atoms: C_20  and  C_21
REMARK    6  A    between atoms: C_21  and  C_23
REMARK                            x       y       z     vdW  Elec       q    Type
REMARK                         _______ _______ _______ _____ _____    ______ ____
ROOT
ATOM      1  C   UNL     1     -55.483 -41.329 -63.329  0.00  0.00    +0.000 A 
ATOM      2  N   UNL     1     -54.133 -41.050 -63.618  0.00  0.00    +0.000 N 
ATOM      3  C   UNL     1     -53.192 -42.106 -63.765  0.00  0.00    +0.000 A 
ATOM      4  C   UNL     1     -51.956 -41.948 -64.420  0.00  0.00    +0.000 A 
ATOM      5 BR   UNL     1     -51.528 -40.338 -65.327  0.00  0.00    +0.000 Br
ATOM      6  C   UNL     1     -51.011 -42.984 -64.446  0.00  0.00    +0.000 A 
ATOM      7  C   UNL     1     -51.308 -44.207 -63.834  0.00  0.00    +0.000 A 
ATOM      8  C   UNL     1     -52.527 -44.388 -63.180  0.00  0.00    +0.000 A 
ATOM      9 CL   UNL     1     -52.825 -45.955 -62.520  0.00  0.00    +0.000 Cl
ATOM     10  C   UNL     1     -53.449 -43.332 -63.130  0.00  0.00    +0.000 A 
ATOM     11  C   UNL     1     -54.724 -43.400 -62.390  0.00  0.00    +0.000 A 
ATOM     12  O   UNL     1     -54.848 -44.084 -61.382  0.00  0.00    +0.000 OA
ATOM     13  C   UNL     1     -55.859 -42.540 -62.862  0.00  0.00    +0.000 A 
ATOM     14  H   UNL     1     -54.031 -40.304 -64.320  0.00  0.00    +0.000 HD
ENDROOT
BRANCH   1  15
ATOM     15  S   UNL     1     -56.615 -40.114 -64.054  0.00  0.00    +0.000 S 
ATOM     16  O   UNL     1     -55.708 -39.108 -64.708  0.00  0.00    +0.000 OA
BRANCH  15  17
ATOM     17  C   UNL     1     -57.513 -39.255 -62.729  0.00  0.00    +0.000 C 
BRANCH  17  21
ATOM     18  C   UNL     1     -61.765 -41.570 -61.061  0.00  0.00    +0.000 C 
ATOM     19  C   UNL     1     -60.461 -40.945 -61.348  0.00  0.00    +0.000 A 
ATOM     20  C   UNL     1     -59.877 -40.394 -62.465  0.00  0.00    +0.000 A 
ATOM     21  C   UNL     1     -58.639 -39.891 -62.007  0.00  0.00    +0.000 A 
ATOM     22  N   UNL     1     -58.462 -40.187 -60.707  0.00  0.00    +0.000 NA
ATOM     23  O   UNL     1     -59.604 -40.844 -60.300  0.00  0.00    +0.000 OA
ENDBRANCH  17  21
ENDBRANCH  15  17
ENDBRANCH   1  15
BRANCH  13  24
ATOM     24  C   UNL     1     -57.173 -43.243 -62.890  0.00  0.00    +0.000 C 
ATOM     25  O   UNL     1     -57.871 -43.291 -61.892  0.00  0.00    +0.000 OA
BRANCH  24  26
ATOM     26  C   UNL     1     -57.635 -43.837 -64.159  0.00  0.00    +0.000 C 
ATOM     27  C   UNL     1     -57.052 -43.350 -65.461  0.00  0.00    +0.000 C 
ATOM     28  C   UNL     1     -58.482 -43.048 -65.129  0.00  0.00    +0.000 C 
ENDBRANCH  24  26
ENDBRANCH  13  24
TORSDOF 5
ENDMDL
MODEL 8
REMARK VINA RESULT:    -6.533      3.234      5.513
REMARK INTER + INTRA:          -9.319
REMARK INTER:                  -8.455
REMARK INTRA:                  -0.864
REMARK UNBOUND:                -0.876
REMARK  Name = 
REMARK  6 active torsions:
REMARK  status: ('A' for Active; 'I' for Inactive)
REMARK    1  A    between atoms: C_1  and  C_2
REMARK    2  A    between atoms: C_4  and  C_5
REMARK    3  A    between atoms: C_5  and  S_6
REMARK    4  A    between atoms: S_6  and  C_8
REMARK    5  A    between atoms: C_20  and  C_21
REMARK    6  A    between atoms: C_21  and  C_23
REMARK                            x       y       z     vdW  Elec       q    Type
REMARK                         _______ _______ _______ _____ _____    ______ ____
ROOT
ATOM      1  C   UNL     1     -57.671 -43.114 -77.167  0.00  0.00    +0.000 A 
ATOM      2  N   UNL     1     -57.302 -44.416 -77.556  0.00  0.00    +0.000 N 
ATOM      3  C   UNL     1     -56.222 -45.084 -76.916  0.00  0.00    +0.000 A 
ATOM      4  C   UNL     1     -56.045 -46.480 -76.965  0.00  0.00    +0.000 A 
ATOM      5 BR   UNL     1     -57.355 -47.606 -77.749  0.00  0.00    +0.000 Br
ATOM      6  C   UNL     1     -54.907 -47.086 -76.414  0.00  0.00    +0.000 A 
ATOM      7  C   UNL     1     -53.941 -46.297 -75.780  0.00  0.00    +0.000 A 
ATOM      8  C   UNL     1     -54.095 -44.912 -75.718  0.00  0.00    +0.000 A 
ATOM      9 CL   UNL     1     -52.884 -44.037 -74.852  0.00  0.00    +0.000 Cl
ATOM     10  C   UNL     1     -55.221 -44.314 -76.304  0.00  0.00    +0.000 A 
ATOM     11  C   UNL     1     -55.427 -42.854 -76.363  0.00  0.00    +0.000 A 
ATOM     12  O   UNL     1     -54.486 -42.072 -76.420  0.00  0.00    +0.000 OA
ATOM     13  C   UNL     1     -56.836 -42.345 -76.434  0.00  0.00    +0.000 A 
ATOM     14  H   UNL     1     -58.120 -45.018 -77.725  0.00  0.00    +0.000 HD
ENDROOT
BRANCH   1  15
ATOM     15  S   UNL     1     -59.447 -42.808 -77.352  0.00  0.00    +0.000 S 
ATOM     16  O   UNL     1     -60.054 -44.183 -77.412  0.00  0.00    +0.000 OA
BRANCH  15  17
ATOM     17  C   UNL     1     -59.760 -42.006 -78.952  0.00  0.00    +0.000 C 
BRANCH  17  21
ATOM     18  C   UNL     1     -62.398 -37.678 -79.683  0.00  0.00    +0.000 C 
ATOM     19  C   UNL     1     -61.523 -38.812 -79.333  0.00  0.00    +0.000 A 
ATOM     20  C   UNL     1     -61.492 -40.147 -79.661  0.00  0.00    +0.000 A 
ATOM     21  C   UNL     1     -60.319 -40.637 -79.046  0.00  0.00    +0.000 A 
ATOM     22  N   UNL     1     -59.720 -39.667 -78.332  0.00  0.00    +0.000 NA
ATOM     23  O   UNL     1     -60.476 -38.528 -78.517  0.00  0.00    +0.000 OA
ENDBRANCH  17  21
ENDBRANCH  15  17
ENDBRANCH   1  15
BRANCH  13  24
ATOM     24  C   UNL     1     -57.097 -41.179 -75.542  0.00  0.00    +0.000 C 
ATOM     25  O   UNL     1     -57.361 -40.086 -76.013  0.00  0.00    +0.000 OA
BRANCH  24  26
ATOM     26  C   UNL     1     -57.076 -41.382 -74.081  0.00  0.00    +0.000 C 
ATOM     27  C   UNL     1     -57.744 -42.598 -73.493  0.00  0.00    +0.000 C 
ATOM     28  C   UNL     1     -58.332 -41.240 -73.254  0.00  0.00    +0.000 C 
ENDBRANCH  24  26
ENDBRANCH  13  24
TORSDOF 5
ENDMDL
MODEL 9
REMARK VINA RESULT:    -6.346     12.047     13.622
REMARK INTER + INTRA:          -9.077
REMARK INTER:                  -8.339
REMARK INTRA:                  -0.738
REMARK UNBOUND:                -0.876
REMARK  Name = 
REMARK  6 active torsions:
REMARK  status: ('A' for Active; 'I' for Inactive)
REMARK    1  A    between atoms: C_1  and  C_2
REMARK    2  A    between atoms: C_4  and  C_5
REMARK    3  A    between atoms: C_5  and  S_6
REMARK    4  A    between atoms: S_6  and  C_8
REMARK    5  A    between atoms: C_20  and  C_21
REMARK    6  A    between atoms: C_21  and  C_23
REMARK                            x       y       z     vdW  Elec       q    Type
REMARK                         _______ _______ _______ _____ _____    ______ ____
ROOT
ATOM      1  C   UNL     1     -55.665 -41.117 -62.881  0.00  0.00    +0.000 A 
ATOM      2  N   UNL     1     -54.356 -40.812 -63.301  0.00  0.00    +0.000 N 
ATOM      3  C   UNL     1     -53.425 -41.850 -63.582  0.00  0.00    +0.000 A 
ATOM      4  C   UNL     1     -52.268 -41.654 -64.359  0.00  0.00    +0.000 A 
ATOM      5 BR   UNL     1     -51.953 -40.010 -65.249  0.00  0.00    +0.000 Br
ATOM      6  C   UNL     1     -51.321 -42.676 -64.519  0.00  0.00    +0.000 A 
ATOM      7  C   UNL     1     -51.539 -43.922 -63.921  0.00  0.00    +0.000 A 
ATOM      8  C   UNL     1     -52.680 -44.140 -63.149  0.00  0.00    +0.000 A 
ATOM      9 CL   UNL     1     -52.892 -45.733 -62.515  0.00  0.00    +0.000 Cl
ATOM     10  C   UNL     1     -53.602 -43.099 -62.966  0.00  0.00    +0.000 A 
ATOM     11  C   UNL     1     -54.791 -43.209 -62.099  0.00  0.00    +0.000 A 
ATOM     12  O   UNL     1     -54.802 -43.927 -61.107  0.00  0.00    +0.000 OA
ATOM     13  C   UNL     1     -55.977 -42.348 -62.419  0.00  0.00    +0.000 A 
ATOM     14  H   UNL     1     -54.336 -40.042 -63.984  0.00  0.00    +0.000 HD
ENDROOT
BRANCH   1  15
ATOM     15  S   UNL     1     -56.879 -39.894 -63.441  0.00  0.00    +0.000 S 
ATOM     16  O   UNL     1     -56.103 -39.002 -64.372  0.00  0.00    +0.000 OA
BRANCH  15  17
ATOM     17  C   UNL     1     -57.411 -38.878 -62.032  0.00  0.00    +0.000 C 
BRANCH  17  21
ATOM     18  C   UNL     1     -61.045 -35.285 -62.339  0.00  0.00    +0.000 C 
ATOM     19  C   UNL     1     -60.156 -36.459 -62.285  0.00  0.00    +0.000 A 
ATOM     20  C   UNL     1     -58.797 -36.639 -62.176  0.00  0.00    +0.000 A 
ATOM     21  C   UNL     1     -58.630 -38.039 -62.088  0.00  0.00    +0.000 A 
ATOM     22  N   UNL     1     -59.814 -38.664 -62.208  0.00  0.00    +0.000 NA
ATOM     23  O   UNL     1     -60.765 -37.671 -62.330  0.00  0.00    +0.000 OA
ENDBRANCH  17  21
ENDBRANCH  15  17
ENDBRANCH   1  15
BRANCH  13  24
ATOM     24  C   UNL     1     -57.280 -43.067 -62.332  0.00  0.00    +0.000 C 
ATOM     25  O   UNL     1     -57.937 -43.037 -61.306  0.00  0.00    +0.000 OA
BRANCH  24  26
ATOM     26  C   UNL     1     -57.783 -43.775 -63.524  0.00  0.00    +0.000 C 
ATOM     27  C   UNL     1     -57.131 -43.530 -64.861  0.00  0.00    +0.000 C 
ATOM     28  C   UNL     1     -58.526 -43.040 -64.615  0.00  0.00    +0.000 C 
ENDBRANCH  24  26
ENDBRANCH  13  24
TORSDOF 5
ENDMDL
MODEL 10
REMARK VINA RESULT:    -6.296      4.505      8.071
REMARK INTER + INTRA:          -9.012
REMARK INTER:                  -8.408
REMARK INTRA:                  -0.605
REMARK UNBOUND:                -0.876
REMARK  Name = 
REMARK  6 active torsions:
REMARK  status: ('A' for Active; 'I' for Inactive)
REMARK    1  A    between atoms: C_1  and  C_2
REMARK    2  A    between atoms: C_4  and  C_5
REMARK    3  A    between atoms: C_5  and  S_6
REMARK    4  A    between atoms: S_6  and  C_8
REMARK    5  A    between atoms: C_20  and  C_21
REMARK    6  A    between atoms: C_21  and  C_23
REMARK                            x       y       z     vdW  Elec       q    Type
REMARK                         _______ _______ _______ _____ _____    ______ ____
ROOT
ATOM      1  C   UNL     1     -53.419 -42.560 -78.195  0.00  0.00    +0.000 A 
ATOM      2  N   UNL     1     -54.551 -43.356 -78.457  0.00  0.00    +0.000 N 
ATOM      3  C   UNL     1     -55.681 -43.312 -77.596  0.00  0.00    +0.000 A 
ATOM      4  C   UNL     1     -56.960 -43.755 -77.984  0.00  0.00    +0.000 A 
ATOM      5 BR   UNL     1     -57.312 -44.285 -79.771  0.00  0.00    +0.000 Br
ATOM      6  C   UNL     1     -58.022 -43.796 -77.070  0.00  0.00    +0.000 A 
ATOM      7  C   UNL     1     -57.819 -43.365 -75.753  0.00  0.00    +0.000 A 
ATOM      8  C   UNL     1     -56.561 -42.920 -75.346  0.00  0.00    +0.000 A 
ATOM      9 CL   UNL     1     -56.433 -42.343 -73.724  0.00  0.00    +0.000 Cl
ATOM     10  C   UNL     1     -55.498 -42.917 -76.261  0.00  0.00    +0.000 A 
ATOM     11  C   UNL     1     -54.116 -42.546 -75.901  0.00  0.00    +0.000 A 
ATOM     12  O   UNL     1     -53.671 -42.734 -74.775  0.00  0.00    +0.000 OA
ATOM     13  C   UNL     1     -53.230 -41.999 -76.980  0.00  0.00    +0.000 A 
ATOM     14  H   UNL     1     -54.792 -43.372 -79.457  0.00  0.00    +0.000 HD
ENDROOT
BRANCH   1  15
ATOM     15  S   UNL     1     -52.567 -42.040 -79.707  0.00  0.00    +0.000 S 
ATOM     16  O   UNL     1     -53.133 -40.677 -79.999  0.00  0.00    +0.000 OA
BRANCH  15  17
ATOM     17  C   UNL     1     -53.046 -43.132 -81.079  0.00  0.00    +0.000 C 
BRANCH  17  21
ATOM     18  C   UNL     1     -49.773 -43.028 -85.016  0.00  0.00    +0.000 C 
ATOM     19  C   UNL     1     -50.854 -43.144 -84.019  0.00  0.00    +0.000 A 
ATOM     20  C   UNL     1     -50.952 -42.913 -82.667  0.00  0.00    +0.000 A 
ATOM     21  C   UNL     1     -52.313 -43.138 -82.366  0.00  0.00    +0.000 A 
ATOM     22  N   UNL     1     -52.977 -43.548 -83.461  0.00  0.00    +0.000 NA
ATOM     23  O   UNL     1     -52.060 -43.548 -84.492  0.00  0.00    +0.000 OA
ENDBRANCH  17  21
ENDBRANCH  15  17
ENDBRANCH   1  15
BRANCH  13  24
ATOM     24  C   UNL     1     -52.426 -40.818 -76.554  0.00  0.00    +0.000 C 
ATOM     25  O   UNL     1     -52.864 -39.689 -76.688  0.00  0.00    +0.000 OA
BRANCH  24  26
ATOM     26  C   UNL     1     -51.111 -41.043 -75.924  0.00  0.00    +0.000 C 
ATOM     27  C   UNL     1     -50.252 -39.860 -75.559  0.00  0.00    +0.000 C 
ATOM     28  C   UNL     1     -49.828 -40.769 -76.672  0.00  0.00    +0.000 C 
ENDBRANCH  24  26
ENDBRANCH  13  24
TORSDOF 5
ENDMDL
MODEL 11
REMARK VINA RESULT:    -6.136     11.813     14.669
REMARK INTER + INTRA:          -8.805
REMARK INTER:                  -8.039
REMARK INTRA:                  -0.766
REMARK UNBOUND:                -0.876
REMARK  Name = 
REMARK  6 active torsions:
REMARK  status: ('A' for Active; 'I' for Inactive)
REMARK    1  A    between atoms: C_1  and  C_2
REMARK    2  A    between atoms: C_4  and  C_5
REMARK    3  A    between atoms: C_5  and  S_6
REMARK    4  A    between atoms: S_6  and  C_8
REMARK    5  A    between atoms: C_20  and  C_21
REMARK    6  A    between atoms: C_21  and  C_23
REMARK                            x       y       z     vdW  Elec       q    Type
REMARK                         _______ _______ _______ _____ _____    ______ ____
ROOT
ATOM      1  C   UNL     1     -56.820 -41.021 -61.657  0.00  0.00    +0.000 A 
ATOM      2  N   UNL     1     -56.741 -41.695 -60.423  0.00  0.00    +0.000 N 
ATOM      3  C   UNL     1     -55.727 -42.664 -60.191  0.00  0.00    +0.000 A 
ATOM      4  C   UNL     1     -55.344 -43.081 -58.902  0.00  0.00    +0.000 A 
ATOM      5 BR   UNL     1     -56.039 -42.236 -57.353  0.00  0.00    +0.000 Br
ATOM      6  C   UNL     1     -54.419 -44.118 -58.721  0.00  0.00    +0.000 A 
ATOM      7  C   UNL     1     -53.842 -44.735 -59.837  0.00  0.00    +0.000 A 
ATOM      8  C   UNL     1     -54.205 -44.337 -61.124  0.00  0.00    +0.000 A 
ATOM      9 CL   UNL     1     -53.384 -45.110 -62.432  0.00  0.00    +0.000 Cl
ATOM     10  C   UNL     1     -55.159 -43.322 -61.293  0.00  0.00    +0.000 A 
ATOM     11  C   UNL     1     -55.667 -42.895 -62.610  0.00  0.00    +0.000 A 
ATOM     12  O   UNL     1     -55.741 -43.671 -63.555  0.00  0.00    +0.000 OA
ATOM     13  C   UNL     1     -56.173 -41.490 -62.747  0.00  0.00    +0.000 A 
ATOM     14  H   UNL     1     -56.903 -41.065 -59.625  0.00  0.00    +0.000 HD
ENDROOT
BRANCH   1  15
ATOM     15  S   UNL     1     -57.454 -39.332 -61.490  0.00  0.00    +0.000 S 
ATOM     16  O   UNL     1     -58.581 -39.260 -62.484  0.00  0.00    +0.000 OA
BRANCH  15  17
ATOM     17  C   UNL     1     -56.181 -38.150 -62.024  0.00  0.00    +0.000 C 
BRANCH  17  21
ATOM     18  C   UNL     1     -58.072 -33.460 -62.826  0.00  0.00    +0.000 C 
ATOM     19  C   UNL     1     -57.344 -34.733 -62.673  0.00  0.00    +0.000 A 
ATOM     20  C   UNL     1     -57.645 -35.959 -62.126  0.00  0.00    +0.000 A 
ATOM     21  C   UNL     1     -56.516 -36.760 -62.409  0.00  0.00    +0.000 A 
ATOM     22  N   UNL     1     -55.566 -36.035 -63.025  0.00  0.00    +0.000 NA
ATOM     23  O   UNL     1     -56.090 -34.770 -63.189  0.00  0.00    +0.000 OA
ENDBRANCH  17  21
ENDBRANCH  15  17
ENDBRANCH   1  15
BRANCH  13  24
ATOM     24  C   UNL     1     -55.720 -40.808 -63.994  0.00  0.00    +0.000 C 
ATOM     25  O   UNL     1     -54.551 -40.499 -64.140  0.00  0.00    +0.000 OA
BRANCH  24  26
ATOM     26  C   UNL     1     -56.703 -40.559 -65.065  0.00  0.00    +0.000 C 
ATOM     27  C   UNL     1     -57.904 -41.461 -65.194  0.00  0.00    +0.000 C 
ATOM     28  C   UNL     1     -56.833 -41.497 -66.242  0.00  0.00    +0.000 C 
ENDBRANCH  24  26
ENDBRANCH  13  24
TORSDOF 5
ENDMDL
MODEL 12
REMARK VINA RESULT:    -5.968      3.536      6.361
REMARK INTER + INTRA:          -8.589
REMARK INTER:                  -7.486
REMARK INTRA:                  -1.103
REMARK UNBOUND:                -0.876
REMARK  Name = 
REMARK  6 active torsions:
REMARK  status: ('A' for Active; 'I' for Inactive)
REMARK    1  A    between atoms: C_1  and  C_2
REMARK    2  A    between atoms: C_4  and  C_5
REMARK    3  A    between atoms: C_5  and  S_6
REMARK    4  A    between atoms: S_6  and  C_8
REMARK    5  A    between atoms: C_20  and  C_21
REMARK    6  A    between atoms: C_21  and  C_23
REMARK                            x       y       z     vdW  Elec       q    Type
REMARK                         _______ _______ _______ _____ _____    ______ ____
ROOT
ATOM      1  C   UNL     1     -55.805 -42.942 -77.508  0.00  0.00    +0.000 A 
ATOM      2  N   UNL     1     -57.113 -43.329 -77.156  0.00  0.00    +0.000 N 
ATOM      3  C   UNL     1     -57.722 -42.829 -75.972  0.00  0.00    +0.000 A 
ATOM      4  C   UNL     1     -59.113 -42.847 -75.758  0.00  0.00    +0.000 A 
ATOM      5 BR   UNL     1     -60.308 -43.384 -77.129  0.00  0.00    +0.000 Br
ATOM      6  C   UNL     1     -59.663 -42.446 -74.532  0.00  0.00    +0.000 A 
ATOM      7  C   UNL     1     -58.820 -41.994 -73.510  0.00  0.00    +0.000 A 
ATOM      8  C   UNL     1     -57.438 -41.965 -73.700  0.00  0.00    +0.000 A 
ATOM      9 CL   UNL     1     -56.493 -41.323 -72.406  0.00  0.00    +0.000 Cl
ATOM     10  C   UNL     1     -56.898 -42.403 -74.919  0.00  0.00    +0.000 A 
ATOM     11  C   UNL     1     -55.448 -42.490 -75.180  0.00  0.00    +0.000 A 
ATOM     12  O   UNL     1     -54.644 -42.715 -74.285  0.00  0.00    +0.000 OA
ATOM     13  C   UNL     1     -54.982 -42.372 -76.601  0.00  0.00    +0.000 A 
ATOM     14  H   UNL     1     -57.744 -43.351 -77.969  0.00  0.00    +0.000 HD
ENDROOT
BRANCH   1  15
ATOM     15  S   UNL     1     -55.557 -42.876 -79.302  0.00  0.00    +0.000 S 
ATOM     16  O   UNL     1     -56.800 -42.207 -79.822  0.00  0.00    +0.000 OA
BRANCH  15  17
ATOM     17  C   UNL     1     -55.528 -44.565 -79.972  0.00  0.00    +0.000 C 
BRANCH  17  21
ATOM     18  C   UNL     1     -55.844 -48.638 -76.885  0.00  0.00    +0.000 C 
ATOM     19  C   UNL     1     -55.965 -47.456 -77.758  0.00  0.00    +0.000 A 
ATOM     20  C   UNL     1     -55.071 -46.613 -78.375  0.00  0.00    +0.000 A 
ATOM     21  C   UNL     1     -55.875 -45.742 -79.143  0.00  0.00    +0.000 A 
ATOM     22  N   UNL     1     -57.178 -46.004 -78.943  0.00  0.00    +0.000 NA
ATOM     23  O   UNL     1     -57.229 -47.077 -78.077  0.00  0.00    +0.000 OA
ENDBRANCH  17  21
ENDBRANCH  15  17
ENDBRANCH   1  15
BRANCH  13  24
ATOM     24  C   UNL     1     -53.785 -41.499 -76.768  0.00  0.00    +0.000 C 
ATOM     25  O   UNL     1     -53.865 -40.296 -76.590  0.00  0.00    +0.000 OA
BRANCH  24  26
ATOM     26  C   UNL     1     -52.491 -42.123 -77.106  0.00  0.00    +0.000 C 
ATOM     27  C   UNL     1     -51.246 -41.275 -77.142  0.00  0.00    +0.000 C 
ATOM     28  C   UNL     1     -51.801 -41.833 -78.417  0.00  0.00    +0.000 C 
ENDBRANCH  24  26
ENDBRANCH  13  24
TORSDOF 5
ENDMDL
MODEL 13
REMARK VINA RESULT:    -5.906     11.448     13.812
REMARK INTER + INTRA:          -8.509
REMARK INTER:                  -7.342
REMARK INTRA:                  -1.166
REMARK UNBOUND:                -0.876
REMARK  Name = 
REMARK  6 active torsions:
REMARK  status: ('A' for Active; 'I' for Inactive)
REMARK    1  A    between atoms: C_1  and  C_2
REMARK    2  A    between atoms: C_4  and  C_5
REMARK    3  A    between atoms: C_5  and  S_6
REMARK    4  A    between atoms: S_6  and  C_8
REMARK    5  A    between atoms: C_20  and  C_21
REMARK    6  A    between atoms: C_21  and  C_23
REMARK                            x       y       z     vdW  Elec       q    Type
REMARK                         _______ _______ _______ _____ _____    ______ ____
ROOT
ATOM      1  C   UNL     1     -57.510 -41.154 -62.656  0.00  0.00    +0.000 A 
ATOM      2  N   UNL     1     -57.076 -39.869 -62.275  0.00  0.00    +0.000 N 
ATOM      3  C   UNL     1     -56.038 -39.214 -62.992  0.00  0.00    +0.000 A 
ATOM      4  C   UNL     1     -55.822 -37.824 -62.932  0.00  0.00    +0.000 A 
ATOM      5 BR   UNL     1     -57.031 -36.685 -62.015  0.00  0.00    +0.000 Br
ATOM      6  C   UNL     1     -54.721 -37.233 -63.567  0.00  0.00    +0.000 A 
ATOM      7  C   UNL     1     -53.833 -38.031 -64.297  0.00  0.00    +0.000 A 
ATOM      8  C   UNL     1     -54.027 -39.410 -64.373  0.00  0.00    +0.000 A 
ATOM      9 CL   UNL     1     -52.918 -40.294 -65.357  0.00  0.00    +0.000 Cl
ATOM     10  C   UNL     1     -55.113 -39.994 -63.703  0.00  0.00    +0.000 A 
ATOM     11  C   UNL     1     -55.350 -41.450 -63.655  0.00  0.00    +0.000 A 
ATOM     12  O   UNL     1     -54.428 -42.255 -63.696  0.00  0.00    +0.000 OA
ATOM     13  C   UNL     1     -56.761 -41.927 -63.473  0.00  0.00    +0.000 A 
ATOM     14  H   UNL     1     -57.861 -39.252 -62.024  0.00  0.00    +0.000 HD
ENDROOT
BRANCH   1  15
ATOM     15  S   UNL     1     -59.271 -41.421 -62.324  0.00  0.00    +0.000 S 
ATOM     16  O   UNL     1     -59.969 -40.414 -63.196  0.00  0.00    +0.000 OA
BRANCH  15  17
ATOM     17  C   UNL     1     -59.634 -40.990 -60.597  0.00  0.00    +0.000 C 
BRANCH  17  21
ATOM     18  C   UNL     1     -57.330 -43.497 -56.772  0.00  0.00    +0.000 C 
ATOM     19  C   UNL     1     -57.822 -42.649 -57.874  0.00  0.00    +0.000 A 
ATOM     20  C   UNL     1     -58.915 -42.684 -58.708  0.00  0.00    +0.000 A 
ATOM     21  C   UNL     1     -58.816 -41.501 -59.473  0.00  0.00    +0.000 A 
ATOM     22  N   UNL     1     -57.690 -40.833 -59.164  0.00  0.00    +0.000 NA
ATOM     23  O   UNL     1     -57.075 -41.554 -58.163  0.00  0.00    +0.000 OA
ENDBRANCH  17  21
ENDBRANCH  15  17
ENDBRANCH   1  15
BRANCH  13  24
ATOM     24  C   UNL     1     -57.127 -43.066 -64.362  0.00  0.00    +0.000 C 
ATOM     25  O   UNL     1     -57.368 -44.165 -63.892  0.00  0.00    +0.000 OA
BRANCH  24  26
ATOM     26  C   UNL     1     -57.239 -42.829 -65.813  0.00  0.00    +0.000 C 
ATOM     27  C   UNL     1     -57.638 -41.464 -66.313  0.00  0.00    +0.000 C 
ATOM     28  C   UNL     1     -58.583 -42.617 -66.470  0.00  0.00    +0.000 C 
ENDBRANCH  24  26
ENDBRANCH  13  24
TORSDOF 5
ENDMDL
MODEL 14
REMARK VINA RESULT:    -5.726     15.645     18.478
REMARK INTER + INTRA:          -8.276
REMARK INTER:                  -7.832
REMARK INTRA:                  -0.444
REMARK UNBOUND:                -0.876
REMARK  Name = 
REMARK  6 active torsions:
REMARK  status: ('A' for Active; 'I' for Inactive)
REMARK    1  A    between atoms: C_1  and  C_2
REMARK    2  A    between atoms: C_4  and  C_5
REMARK    3  A    between atoms: C_5  and  S_6
REMARK    4  A    between atoms: S_6  and  C_8
REMARK    5  A    between atoms: C_20  and  C_21
REMARK    6  A    between atoms: C_21  and  C_23
REMARK                            x       y       z     vdW  Elec       q    Type
REMARK                         _______ _______ _______ _____ _____    ______ ____
ROOT
ATOM      1  C   UNL     1     -57.440 -31.737 -60.982  0.00  0.00    +0.000 A 
ATOM      2  N   UNL     1     -56.232 -32.187 -60.416  0.00  0.00    +0.000 N 
ATOM      3  C   UNL     1     -55.394 -33.093 -61.123  0.00  0.00    +0.000 A 
ATOM      4  C   UNL     1     -54.033 -33.278 -60.817  0.00  0.00    +0.000 A 
ATOM      5 BR   UNL     1     -53.159 -32.185 -59.537  0.00  0.00    +0.000 Br
ATOM      6  C   UNL     1     -53.271 -34.261 -61.466  0.00  0.00    +0.000 A 
ATOM      7  C   UNL     1     -53.863 -35.055 -62.454  0.00  0.00    +0.000 A 
ATOM      8  C   UNL     1     -55.211 -34.889 -62.775  0.00  0.00    +0.000 A 
ATOM      9 CL   UNL     1     -55.827 -35.868 -64.058  0.00  0.00    +0.000 Cl
ATOM     10  C   UNL     1     -55.971 -33.927 -62.094  0.00  0.00    +0.000 A 
ATOM     11  C   UNL     1     -57.419 -33.737 -62.304  0.00  0.00    +0.000 A 
ATOM     12  O   UNL     1     -58.150 -34.665 -62.629  0.00  0.00    +0.000 OA
ATOM     13  C   UNL     1     -57.999 -32.381 -62.031  0.00  0.00    +0.000 A 
ATOM     14  H   UNL     1     -55.718 -31.431 -59.943  0.00  0.00    +0.000 HD
ENDROOT
BRANCH   1  15
ATOM     15  S   UNL     1     -57.862 -30.050 -60.473  0.00  0.00    +0.000 S 
ATOM     16  O   UNL     1     -56.972 -29.177 -61.315  0.00  0.00    +0.000 OA
BRANCH  15  17
ATOM     17  C   UNL     1     -57.383 -29.802 -58.738  0.00  0.00    +0.000 C 
BRANCH  17  21
ATOM     18  C   UNL     1     -57.076 -25.552 -55.899  0.00  0.00    +0.000 C 
ATOM     19  C   UNL     1     -57.262 -26.654 -56.862  0.00  0.00    +0.000 A 
ATOM     20  C   UNL     1     -56.868 -27.970 -56.913  0.00  0.00    +0.000 A 
ATOM     21  C   UNL     1     -57.477 -28.478 -58.082  0.00  0.00    +0.000 A 
ATOM     22  N   UNL     1     -58.139 -27.504 -58.730  0.00  0.00    +0.000 NA
ATOM     23  O   UNL     1     -58.002 -26.366 -57.962  0.00  0.00    +0.000 OA
ENDBRANCH  17  21
ENDBRANCH  15  17
ENDBRANCH   1  15
BRANCH  13  24
ATOM     24  C   UNL     1     -58.964 -31.921 -63.070  0.00  0.00    +0.000 C 
ATOM     25  O   UNL     1     -60.150 -32.181 -62.972  0.00  0.00    +0.000 OA
BRANCH  24  26
ATOM     26  C   UNL     1     -58.464 -31.105 -64.193  0.00  0.00    +0.000 C 
ATOM     27  C   UNL     1     -58.902 -29.668 -64.318  0.00  0.00    +0.000 C 
ATOM     28  C   UNL     1     -59.378 -30.678 -65.317  0.00  0.00    +0.000 C 
ENDBRANCH  24  26
ENDBRANCH  13  24
TORSDOF 5
ENDMDL
MODEL 15
REMARK VINA RESULT:    -5.714     11.998     14.936
REMARK INTER + INTRA:          -8.261
REMARK INTER:                  -7.250
REMARK INTRA:                  -1.011
REMARK UNBOUND:                -0.876
REMARK  Name = 
REMARK  6 active torsions:
REMARK  status: ('A' for Active; 'I' for Inactive)
REMARK    1  A    between atoms: C_1  and  C_2
REMARK    2  A    between atoms: C_4  and  C_5
REMARK    3  A    between atoms: C_5  and  S_6
REMARK    4  A    between atoms: S_6  and  C_8
REMARK    5  A    between atoms: C_20  and  C_21
REMARK    6  A    between atoms: C_21  and  C_23
REMARK                            x       y       z     vdW  Elec       q    Type
REMARK                         _______ _______ _______ _____ _____    ______ ____
ROOT
ATOM      1  C   UNL     1     -56.608 -40.939 -61.628  0.00  0.00    +0.000 A 
ATOM      2  N   UNL     1     -56.630 -41.548 -60.358  0.00  0.00    +0.000 N 
ATOM      3  C   UNL     1     -55.704 -42.576 -60.032  0.00  0.00    +0.000 A 
ATOM      4  C   UNL     1     -55.405 -42.949 -58.708  0.00  0.00    +0.000 A 
ATOM      5 BR   UNL     1     -56.094 -41.971 -57.236  0.00  0.00    +0.000 Br
ATOM      6  C   UNL     1     -54.570 -44.041 -58.433  0.00  0.00    +0.000 A 
ATOM      7  C   UNL     1     -53.999 -44.759 -59.490  0.00  0.00    +0.000 A 
ATOM      8  C   UNL     1     -54.278 -44.407 -60.811  0.00  0.00    +0.000 A 
ATOM      9 CL   UNL     1     -53.468 -45.309 -62.040  0.00  0.00    +0.000 Cl
ATOM     10  C   UNL     1     -55.145 -43.334 -61.073  0.00  0.00    +0.000 A 
ATOM     11  C   UNL     1     -55.566 -42.943 -62.432  0.00  0.00    +0.000 A 
ATOM     12  O   UNL     1     -55.661 -43.762 -63.338  0.00  0.00    +0.000 OA
ATOM     13  C   UNL     1     -55.956 -41.514 -62.663  0.00  0.00    +0.000 A 
ATOM     14  H   UNL     1     -56.775 -40.865 -59.601  0.00  0.00    +0.000 HD
ENDROOT
BRANCH   1  15
ATOM     15  S   UNL     1     -57.117 -39.201 -61.576  0.00  0.00    +0.000 S 
ATOM     16  O   UNL     1     -56.025 -38.519 -60.797  0.00  0.00    +0.000 OA
BRANCH  15  17
ATOM     17  C   UNL     1     -58.650 -39.046 -60.612  0.00  0.00    +0.000 C 
BRANCH  17  21
ATOM     18  C   UNL     1     -62.826 -40.117 -63.374  0.00  0.00    +0.000 C 
ATOM     19  C   UNL     1     -61.759 -39.750 -62.425  0.00  0.00    +0.000 A 
ATOM     20  C   UNL     1     -60.387 -39.846 -62.428  0.00  0.00    +0.000 A 
ATOM     21  C   UNL     1     -59.985 -39.209 -61.233  0.00  0.00    +0.000 A 
ATOM     22  N   UNL     1     -61.057 -38.818 -60.522  0.00  0.00    +0.000 NA
ATOM     23  O   UNL     1     -62.163 -39.157 -61.273  0.00  0.00    +0.000 OA
ENDBRANCH  17  21
ENDBRANCH  15  17
ENDBRANCH   1  15
BRANCH  13  24
ATOM     24  C   UNL     1     -55.404 -40.938 -63.922  0.00  0.00    +0.000 C 
ATOM     25  O   UNL     1     -54.203 -40.774 -64.053  0.00  0.00    +0.000 OA
BRANCH  24  26
ATOM     26  C   UNL     1     -56.330 -40.614 -65.023  0.00  0.00    +0.000 C 
ATOM     27  C   UNL     1     -57.621 -41.381 -65.155  0.00  0.00    +0.000 C 
ATOM     28  C   UNL     1     -56.539 -41.567 -66.176  0.00  0.00    +0.000 C 
ENDBRANCH  24  26
ENDBRANCH  13  24
TORSDOF 5
ENDMDL
MODEL 16
REMARK VINA RESULT:    -5.596     11.042     13.682
REMARK INTER + INTRA:          -8.108
REMARK INTER:                  -7.295
REMARK INTRA:                  -0.813
REMARK UNBOUND:                -0.876
REMARK  Name = 
REMARK  6 active torsions:
REMARK  status: ('A' for Active; 'I' for Inactive)
REMARK    1  A    between atoms: C_1  and  C_2
REMARK    2  A    between atoms: C_4  and  C_5
REMARK    3  A    between atoms: C_5  and  S_6
REMARK    4  A    between atoms: S_6  and  C_8
REMARK    5  A    between atoms: C_20  and  C_21
REMARK    6  A    between atoms: C_21  and  C_23
REMARK                            x       y       z     vdW  Elec       q    Type
REMARK                         _______ _______ _______ _____ _____    ______ ____
ROOT
ATOM      1  C   UNL     1     -57.643 -41.088 -62.737  0.00  0.00    +0.000 A 
ATOM      2  N   UNL     1     -57.141 -39.832 -62.344  0.00  0.00    +0.000 N 
ATOM      3  C   UNL     1     -56.068 -39.227 -63.054  0.00  0.00    +0.000 A 
ATOM      4  C   UNL     1     -55.778 -37.851 -62.981  0.00  0.00    +0.000 A 
ATOM      5 BR   UNL     1     -56.925 -36.656 -62.056  0.00  0.00    +0.000 Br
ATOM      6  C   UNL     1     -54.645 -37.315 -63.608  0.00  0.00    +0.000 A 
ATOM      7  C   UNL     1     -53.799 -38.153 -64.344  0.00  0.00    +0.000 A 
ATOM      8  C   UNL     1     -54.067 -39.519 -64.433  0.00  0.00    +0.000 A 
ATOM      9 CL   UNL     1     -53.005 -40.453 -65.423  0.00  0.00    +0.000 Cl
ATOM     10  C   UNL     1     -55.184 -40.049 -63.770  0.00  0.00    +0.000 A 
ATOM     11  C   UNL     1     -55.500 -41.491 -63.735  0.00  0.00    +0.000 A 
ATOM     12  O   UNL     1     -54.623 -42.344 -63.781  0.00  0.00    +0.000 OA
ATOM     13  C   UNL     1     -56.934 -41.893 -63.560  0.00  0.00    +0.000 A 
ATOM     14  H   UNL     1     -57.892 -39.175 -62.089  0.00  0.00    +0.000 HD
ENDROOT
BRANCH   1  15
ATOM     15  S   UNL     1     -59.416 -41.263 -62.410  0.00  0.00    +0.000 S 
ATOM     16  O   UNL     1     -60.067 -40.972 -63.735  0.00  0.00    +0.000 OA
BRANCH  15  17
ATOM     17  C   UNL     1     -59.949 -39.973 -61.247  0.00  0.00    +0.000 C 
BRANCH  17  21
ATOM     18  C   UNL     1     -64.510 -39.635 -58.946  0.00  0.00    +0.000 C 
ATOM     19  C   UNL     1     -63.195 -39.934 -59.541  0.00  0.00    +0.000 A 
ATOM     20  C   UNL     1     -62.318 -39.245 -60.345  0.00  0.00    +0.000 A 
ATOM     21  C   UNL     1     -61.196 -40.096 -60.458  0.00  0.00    +0.000 A 
ATOM     22  N   UNL     1     -61.419 -41.257 -59.817  0.00  0.00    +0.000 NA
ATOM     23  O   UNL     1     -62.669 -41.149 -59.245  0.00  0.00    +0.000 OA
ENDBRANCH  17  21
ENDBRANCH  15  17
ENDBRANCH   1  15
BRANCH  13  24
ATOM     24  C   UNL     1     -57.359 -43.003 -64.459  0.00  0.00    +0.000 C 
ATOM     25  O   UNL     1     -57.407 -44.150 -64.047  0.00  0.00    +0.000 OA
BRANCH  24  26
ATOM     26  C   UNL     1     -57.767 -42.684 -65.840  0.00  0.00    +0.000 C 
ATOM     27  C   UNL     1     -57.890 -43.794 -66.852  0.00  0.00    +0.000 C 
ATOM     28  C   UNL     1     -56.791 -42.785 -66.988  0.00  0.00    +0.000 C 
ENDBRANCH  24  26
ENDBRANCH  13  24
TORSDOF 5
ENDMDL
MODEL 17
REMARK VINA RESULT:    -5.363     11.117     14.744
REMARK INTER + INTRA:          -7.807
REMARK INTER:                  -6.763
REMARK INTRA:                  -1.044
REMARK UNBOUND:                -0.876
REMARK  Name = 
REMARK  6 active torsions:
REMARK  status: ('A' for Active; 'I' for Inactive)
REMARK    1  A    between atoms: C_1  and  C_2
REMARK    2  A    between atoms: C_4  and  C_5
REMARK    3  A    between atoms: C_5  and  S_6
REMARK    4  A    between atoms: S_6  and  C_8
REMARK    5  A    between atoms: C_20  and  C_21
REMARK    6  A    between atoms: C_21  and  C_23
REMARK                            x       y       z     vdW  Elec       q    Type
REMARK                         _______ _______ _______ _____ _____    ______ ____
ROOT
ATOM      1  C   UNL     1     -58.782 -38.601 -62.094  0.00  0.00    +0.000 A 
ATOM      2  N   UNL     1     -57.541 -38.338 -62.706  0.00  0.00    +0.000 N 
ATOM      3  C   UNL     1     -56.946 -37.050 -62.613  0.00  0.00    +0.000 A 
ATOM      4  C   UNL     1     -55.578 -36.818 -62.846  0.00  0.00    +0.000 A 
ATOM      5 BR   UNL     1     -54.375 -38.257 -63.130  0.00  0.00    +0.000 Br
ATOM      6  C   UNL     1     -55.053 -35.518 -62.851  0.00  0.00    +0.000 A 
ATOM      7  C   UNL     1     -55.896 -34.430 -62.595  0.00  0.00    +0.000 A 
ATOM      8  C   UNL     1     -57.256 -34.636 -62.359  0.00  0.00    +0.000 A 
ATOM      9 CL   UNL     1     -58.196 -33.237 -61.982  0.00  0.00    +0.000 Cl
ATOM     10  C   UNL     1     -57.775 -35.939 -62.392  0.00  0.00    +0.000 A 
ATOM     11  C   UNL     1     -59.210 -36.246 -62.240  0.00  0.00    +0.000 A 
ATOM     12  O   UNL     1     -60.079 -35.463 -62.603  0.00  0.00    +0.000 OA
ATOM     13  C   UNL     1     -59.588 -37.592 -61.696  0.00  0.00    +0.000 A 
ATOM     14  H   UNL     1     -56.875 -39.113 -62.583  0.00  0.00    +0.000 HD
ENDROOT
BRANCH   1  15
ATOM     15  S   UNL     1     -58.929 -40.315 -61.524  0.00  0.00    +0.000 S 
ATOM     16  O   UNL     1     -58.665 -40.237 -60.045  0.00  0.00    +0.000 OA
BRANCH  15  17
ATOM     17  C   UNL     1     -57.602 -41.314 -62.261  0.00  0.00    +0.000 C 
BRANCH  17  21
ATOM     18  C   UNL     1     -58.195 -43.675 -66.766  0.00  0.00    +0.000 C 
ATOM     19  C   UNL     1     -57.994 -42.818 -65.583  0.00  0.00    +0.000 A 
ATOM     20  C   UNL     1     -58.078 -43.010 -64.224  0.00  0.00    +0.000 A 
ATOM     21  C   UNL     1     -57.662 -41.781 -63.665  0.00  0.00    +0.000 A 
ATOM     22  N   UNL     1     -57.412 -40.884 -64.634  0.00  0.00    +0.000 NA
ATOM     23  O   UNL     1     -57.620 -41.538 -65.830  0.00  0.00    +0.000 OA
ENDBRANCH  17  21
ENDBRANCH  15  17
ENDBRANCH   1  15
BRANCH  13  24
ATOM     24  C   UNL     1     -60.678 -37.543 -60.680  0.00  0.00    +0.000 C 
ATOM     25  O   UNL     1     -60.428 -37.281 -59.516  0.00  0.00    +0.000 OA
BRANCH  24  26
ATOM     26  C   UNL     1     -62.069 -37.769 -61.117  0.00  0.00    +0.000 C 
ATOM     27  C   UNL     1     -63.163 -37.863 -60.085  0.00  0.00    +0.000 C 
ATOM     28  C   UNL     1     -62.766 -39.083 -60.859  0.00  0.00    +0.000 C 
ENDBRANCH  24  26
ENDBRANCH  13  24
TORSDOF 5
ENDMDL
MODEL 18
REMARK VINA RESULT:    -5.312     11.071     13.287
REMARK INTER + INTRA:          -7.741
REMARK INTER:                  -6.921
REMARK INTRA:                  -0.820
REMARK UNBOUND:                -0.876
REMARK  Name = 
REMARK  6 active torsions:
REMARK  status: ('A' for Active; 'I' for Inactive)
REMARK    1  A    between atoms: C_1  and  C_2
REMARK    2  A    between atoms: C_4  and  C_5
REMARK    3  A    between atoms: C_5  and  S_6
REMARK    4  A    between atoms: S_6  and  C_8
REMARK    5  A    between atoms: C_20  and  C_21
REMARK    6  A    between atoms: C_21  and  C_23
REMARK                            x       y       z     vdW  Elec       q    Type
REMARK                         _______ _______ _______ _____ _____    ______ ____
ROOT
ATOM      1  C   UNL     1     -66.376 -42.729 -67.825  0.00  0.00    +0.000 A 
ATOM      2  N   UNL     1     -65.261 -42.312 -67.073  0.00  0.00    +0.000 N 
ATOM      3  C   UNL     1     -64.004 -42.096 -67.700  0.00  0.00    +0.000 A 
ATOM      4  C   UNL     1     -62.978 -41.327 -67.120  0.00  0.00    +0.000 A 
ATOM      5 BR   UNL     1     -63.267 -40.361 -65.513  0.00  0.00    +0.000 Br
ATOM      6  C   UNL     1     -61.715 -41.230 -67.722  0.00  0.00    +0.000 A 
ATOM      7  C   UNL     1     -61.474 -41.885 -68.935  0.00  0.00    +0.000 A 
ATOM      8  C   UNL     1     -62.476 -42.651 -69.530  0.00  0.00    +0.000 A 
ATOM      9 CL   UNL     1     -62.102 -43.359 -71.060  0.00  0.00    +0.000 Cl
ATOM     10  C   UNL     1     -63.724 -42.769 -68.900  0.00  0.00    +0.000 A 
ATOM     11  C   UNL     1     -64.814 -43.624 -69.409  0.00  0.00    +0.000 A 
ATOM     12  O   UNL     1     -64.588 -44.650 -70.039  0.00  0.00    +0.000 OA
ATOM     13  C   UNL     1     -66.224 -43.246 -69.065  0.00  0.00    +0.000 A 
ATOM     14  H   UNL     1     -65.506 -41.593 -66.378  0.00  0.00    +0.000 HD
ENDROOT
BRANCH   1  15
ATOM     15  S   UNL     1     -67.939 -42.092 -67.165  0.00  0.00    +0.000 S 
ATOM     16  O   UNL     1     -68.849 -43.290 -67.151  0.00  0.00    +0.000 OA
BRANCH  15  17
ATOM     17  C   UNL     1     -68.644 -40.888 -68.330  0.00  0.00    +0.000 C 
BRANCH  17  21
ATOM     18  C   UNL     1     -71.098 -36.462 -67.554  0.00  0.00    +0.000 C 
ATOM     19  C   UNL     1     -70.358 -37.738 -67.567  0.00  0.00    +0.000 A 
ATOM     20  C   UNL     1     -70.066 -38.677 -68.528  0.00  0.00    +0.000 A 
ATOM     21  C   UNL     1     -69.232 -39.609 -67.872  0.00  0.00    +0.000 A 
ATOM     22  N   UNL     1     -69.091 -39.284 -66.575  0.00  0.00    +0.000 NA
ATOM     23  O   UNL     1     -69.796 -38.113 -66.390  0.00  0.00    +0.000 OA
ENDBRANCH  17  21
ENDBRANCH  15  17
ENDBRANCH   1  15
BRANCH  13  24
ATOM     24  C   UNL     1     -67.170 -43.350 -70.212  0.00  0.00    +0.000 C 
ATOM     25  O   UNL     1     -68.078 -44.162 -70.195  0.00  0.00    +0.000 OA
BRANCH  24  26
ATOM     26  C   UNL     1     -67.015 -42.420 -71.347  0.00  0.00    +0.000 C 
ATOM     27  C   UNL     1     -67.813 -42.647 -72.605  0.00  0.00    +0.000 C 
ATOM     28  C   UNL     1     -66.328 -42.848 -72.622  0.00  0.00    +0.000 C 
ENDBRANCH  24  26
ENDBRANCH  13  24
TORSDOF 5
ENDMDL
MODEL 19
REMARK VINA RESULT:    -5.265     13.456     15.575
REMARK INTER + INTRA:          -7.680
REMARK INTER:                  -7.031
REMARK INTRA:                  -0.649
REMARK UNBOUND:                -0.876
REMARK  Name = 
REMARK  6 active torsions:
REMARK  status: ('A' for Active; 'I' for Inactive)
REMARK    1  A    between atoms: C_1  and  C_2
REMARK    2  A    between atoms: C_4  and  C_5
REMARK    3  A    between atoms: C_5  and  S_6
REMARK    4  A    between atoms: S_6  and  C_8
REMARK    5  A    between atoms: C_20  and  C_21
REMARK    6  A    between atoms: C_21  and  C_23
REMARK                            x       y       z     vdW  Elec       q    Type
REMARK                         _______ _______ _______ _____ _____    ______ ____
ROOT
ATOM      1  C   UNL     1     -58.629 -36.645 -61.444  0.00  0.00    +0.000 A 
ATOM      2  N   UNL     1     -57.349 -36.707 -62.027  0.00  0.00    +0.000 N 
ATOM      3  C   UNL     1     -56.913 -37.885 -62.694  0.00  0.00    +0.000 A 
ATOM      4  C   UNL     1     -55.848 -37.897 -63.614  0.00  0.00    +0.000 A 
ATOM      5 BR   UNL     1     -55.020 -36.285 -64.174  0.00  0.00    +0.000 Br
ATOM      6  C   UNL     1     -55.380 -39.098 -64.165  0.00  0.00    +0.000 A 
ATOM      7  C   UNL     1     -55.996 -40.306 -63.818  0.00  0.00    +0.000 A 
ATOM      8  C   UNL     1     -57.055 -40.318 -62.909  0.00  0.00    +0.000 A 
ATOM      9 CL   UNL     1     -57.793 -41.849 -62.603  0.00  0.00    +0.000 Cl
ATOM     10  C   UNL     1     -57.491 -39.114 -62.338  0.00  0.00    +0.000 A 
ATOM     11  C   UNL     1     -58.544 -39.038 -61.306  0.00  0.00    +0.000 A 
ATOM     12  O   UNL     1     -58.731 -39.947 -60.508  0.00  0.00    +0.000 OA
ATOM     13  C   UNL     1     -59.339 -37.770 -61.205  0.00  0.00    +0.000 A 
ATOM     14  H   UNL     1     -57.104 -35.837 -62.520  0.00  0.00    +0.000 HD
ENDROOT
BRANCH   1  15
ATOM     15  S   UNL     1     -59.337 -34.978 -61.490  0.00  0.00    +0.000 S 
ATOM     16  O   UNL     1     -60.117 -34.943 -62.775  0.00  0.00    +0.000 OA
BRANCH  15  17
ATOM     17  C   UNL     1     -58.000 -33.756 -61.633  0.00  0.00    +0.000 C 
BRANCH  17  21
ATOM     18  C   UNL     1     -59.207 -29.736 -64.566  0.00  0.00    +0.000 C 
ATOM     19  C   UNL     1     -58.796 -30.750 -63.578  0.00  0.00    +0.000 A 
ATOM     20  C   UNL     1     -58.879 -32.121 -63.506  0.00  0.00    +0.000 A 
ATOM     21  C   UNL     1     -58.197 -32.456 -62.315  0.00  0.00    +0.000 A 
ATOM     22  N   UNL     1     -57.791 -31.345 -61.675  0.00  0.00    +0.000 NA
ATOM     23  O   UNL     1     -58.167 -30.282 -62.470  0.00  0.00    +0.000 OA
ENDBRANCH  17  21
ENDBRANCH  15  17
ENDBRANCH   1  15
BRANCH  13  24
ATOM     24  C   UNL     1     -60.803 -37.994 -61.031  0.00  0.00    +0.000 C 
ATOM     25  O   UNL     1     -61.379 -37.580 -60.040  0.00  0.00    +0.000 OA
BRANCH  24  26
ATOM     26  C   UNL     1     -61.550 -38.682 -62.101  0.00  0.00    +0.000 C 
ATOM     27  C   UNL     1     -63.004 -39.018 -61.892  0.00  0.00    +0.000 C 
ATOM     28  C   UNL     1     -61.989 -40.119 -61.949  0.00  0.00    +0.000 C 
ENDBRANCH  24  26
ENDBRANCH  13  24
TORSDOF 5
ENDMDL
MODEL 20
REMARK VINA RESULT:    -5.210     11.466     13.680
REMARK INTER + INTRA:          -7.609
REMARK INTER:                  -6.677
REMARK INTRA:                  -0.932
REMARK UNBOUND:                -0.876
REMARK  Name = 
REMARK  6 active torsions:
REMARK  status: ('A' for Active; 'I' for Inactive)
REMARK    1  A    between atoms: C_1  and  C_2
REMARK    2  A    between atoms: C_4  and  C_5
REMARK    3  A    between atoms: C_5  and  S_6
REMARK    4  A    between atoms: S_6  and  C_8
REMARK    5  A    between atoms: C_20  and  C_21
REMARK    6  A    between atoms: C_21  and  C_23
REMARK                            x       y       z     vdW  Elec       q    Type
REMARK                         _______ _______ _______ _____ _____    ______ ____
ROOT
ATOM      1  C   UNL     1     -66.506 -42.510 -67.864  0.00  0.00    +0.000 A 
ATOM      2  N   UNL     1     -65.386 -42.146 -67.093  0.00  0.00    +0.000 N 
ATOM      3  C   UNL     1     -64.098 -42.048 -67.688  0.00  0.00    +0.000 A 
ATOM      4  C   UNL     1     -63.035 -41.334 -67.105  0.00  0.00    +0.000 A 
ATOM      5 BR   UNL     1     -63.298 -40.284 -65.547  0.00  0.00    +0.000 Br
ATOM      6  C   UNL     1     -61.751 -41.354 -67.669  0.00  0.00    +0.000 A 
ATOM      7  C   UNL     1     -61.525 -42.075 -68.848  0.00  0.00    +0.000 A 
ATOM      8  C   UNL     1     -62.564 -42.789 -69.445  0.00  0.00    +0.000 A 
ATOM      9 CL   UNL     1     -62.199 -43.585 -70.933  0.00  0.00    +0.000 Cl
ATOM     10  C   UNL     1     -63.835 -42.790 -68.850  0.00  0.00    +0.000 A 
ATOM     11  C   UNL     1     -64.970 -43.583 -69.361  0.00  0.00    +0.000 A 
ATOM     12  O   UNL     1     -64.803 -44.647 -69.943  0.00  0.00    +0.000 OA
ATOM     13  C   UNL     1     -66.357 -43.088 -69.076  0.00  0.00    +0.000 A 
ATOM     14  H   UNL     1     -65.597 -41.383 -66.435  0.00  0.00    +0.000 HD
ENDROOT
BRANCH   1  15
ATOM     15  S   UNL     1     -68.036 -41.735 -67.280  0.00  0.00    +0.000 S 
ATOM     16  O   UNL     1     -67.622 -40.338 -66.903  0.00  0.00    +0.000 OA
BRANCH  15  17
ATOM     17  C   UNL     1     -68.595 -42.563 -65.763  0.00  0.00    +0.000 C 
BRANCH  17  21
ATOM     18  C   UNL     1     -71.180 -46.914 -64.982  0.00  0.00    +0.000 C 
ATOM     19  C   UNL     1     -70.491 -45.683 -65.412  0.00  0.00    +0.000 A 
ATOM     20  C   UNL     1     -69.827 -44.670 -64.762  0.00  0.00    +0.000 A 
ATOM     21  C   UNL     1     -69.327 -43.851 -65.798  0.00  0.00    +0.000 A 
ATOM     22  N   UNL     1     -69.729 -44.309 -66.997  0.00  0.00    +0.000 NA
ATOM     23  O   UNL     1     -70.455 -45.455 -66.749  0.00  0.00    +0.000 OA
ENDBRANCH  17  21
ENDBRANCH  15  17
ENDBRANCH   1  15
BRANCH  13  24
ATOM     24  C   UNL     1     -67.274 -43.169 -70.249  0.00  0.00    +0.000 C 
ATOM     25  O   UNL     1     -68.223 -43.934 -70.241  0.00  0.00    +0.000 OA
BRANCH  24  26
ATOM     26  C   UNL     1     -67.041 -42.274 -71.398  0.00  0.00    +0.000 C 
ATOM     27  C   UNL     1     -66.681 -40.832 -71.152  0.00  0.00    +0.000 C 
ATOM     28  C   UNL     1     -68.015 -41.174 -71.744  0.00  0.00    +0.000 C 
ENDBRANCH  24  26
ENDBRANCH  13  24
TORSDOF 5
ENDMDL
