REMARK VINA RESULT:    -5.684      4.715      6.662
REMARK INTER + INTRA:          -8.232
REMARK INTER:                  -7.317
REMARK INTRA:                  -0.915
REMARK UNBOUND:                -0.887
REMARK  Name = 
REMARK  8 active torsions:
REMARK  status: ('A' for Active; 'I' for Inactive)
REMARK    1  A    between atoms: C_1  and  C_2
REMARK    2  A    between atoms: C_4  and  C_5
REMARK    3  A    between atoms: C_5  and  S_6
REMARK    4  A    between atoms: S_6  and  C_8
REMARK    5  A    between atoms: C_20  and  C_21
REMARK    6  A    between atoms: C_21  and  C_23
REMARK    7  A    between atoms: C_23  and  C_24
REMARK    8  A    between atoms: C_23  and  C_25
REMARK                            x       y       z     vdW  Elec       q    Type
REMARK                         _______ _______ _______ _____ _____    ______ ____
ROOT
ATOM      1  C   UNL     1     -56.874 -38.248 -62.754  0.00  0.00    +0.000 A 
ATOM      2  N   UNL     1     -56.721 -39.583 -63.117  0.00  0.00    +0.000 N 
ATOM      3  C   UNL     1     -55.492 -40.083 -63.589  0.00  0.00    +0.000 A 
ATOM      4  C   UNL     1     -55.183 -41.456 -63.565  0.00  0.00    +0.000 A 
ATOM      5 BR   UNL     1     -56.348 -42.704 -62.738  0.00  0.00    +0.000 Br
ATOM      6  C   UNL     1     -53.989 -41.934 -64.112  0.00  0.00    +0.000 A 
ATOM      7  C   UNL     1     -53.083 -41.047 -64.686  0.00  0.00    +0.000 A 
ATOM      8  C   UNL     1     -53.370 -39.670 -64.714  0.00  0.00    +0.000 A 
ATOM      9 CL   UNL     1     -52.141 -38.660 -65.387  0.00  0.00    +0.000 Cl
ATOM     10  C   UNL     1     -54.578 -39.188 -64.169  0.00  0.00    +0.000 A 
ATOM     11  C   UNL     1     -54.987 -37.760 -64.178  0.00  0.00    +0.000 A 
ATOM     12  O   UNL     1     -54.523 -36.993 -65.016  0.00  0.00    +0.000 OA
ATOM     13  C   UNL     1     -56.004 -37.286 -63.143  0.00  0.00    +0.000 A 
ATOM     14  H   UNL     1     -57.289 -40.235 -62.559  0.00  0.00    +0.000 HD
ENDROOT
BRANCH   1  15
ATOM     15  S   UNL     1     -58.233 -38.033 -61.544  0.00  0.00    +0.000 S 
ATOM     16  O   UNL     1     -57.522 -37.703 -60.259  0.00  0.00    +0.000 OA
BRANCH  15  17
ATOM     17  C   UNL     1     -58.936 -39.711 -61.400  0.00  0.00    +0.000 C 
BRANCH  17  21
ATOM     18  C   UNL     1     -63.835 -39.977 -63.052  0.00  0.00    +0.000 C 
ATOM     19  C   UNL     1     -62.515 -39.904 -62.389  0.00  0.00    +0.000 A 
ATOM     20  C   UNL     1     -61.207 -39.954 -62.814  0.00  0.00    +0.000 A 
ATOM     21  C   UNL     1     -60.427 -39.790 -61.633  0.00  0.00    +0.000 A 
ATOM     22  N   UNL     1     -61.236 -39.672 -60.566  0.00  0.00    +0.000 NA
ATOM     23  O   UNL     1     -62.532 -39.740 -61.041  0.00  0.00    +0.000 OA
ENDBRANCH  17  21
ENDBRANCH  15  17
ENDBRANCH   1  15
BRANCH  13  24
ATOM     24  C   UNL     1     -55.880 -35.854 -62.675  0.00  0.00    +0.000 C 
ATOM     25  O   UNL     1     -56.762 -35.038 -62.940  0.00  0.00    +0.000 OA
BRANCH  24  26
ATOM     26  C   UNL     1     -54.629 -35.390 -61.928  0.00  0.00    +0.000 C 
ATOM     27  C   UNL     1     -54.676 -33.896 -61.616  0.00  0.00    +0.000 C 
ATOM     28  C   UNL     1     -54.398 -36.193 -60.645  0.00  0.00    +0.000 C 
ENDBRANCH  24  26
ENDBRANCH  13  24
TORSDOF 5
