REMARK VINA RESULT:    -6.620      3.240      5.451
REMARK INTER + INTRA:          -9.475
REMARK INTER:                  -8.083
REMARK INTRA:                  -1.391
REMARK UNBOUND:                -0.920
REMARK  Name = 
REMARK  8 active torsions:
REMARK  status: ('A' for Active; 'I' for Inactive)
REMARK    1  A    between atoms: C_1  and  C_2
REMARK    2  A    between atoms: C_4  and  C_5
REMARK    3  A    between atoms: C_5  and  S_6
REMARK    4  A    between atoms: S_6  and  C_8
REMARK    5  A    between atoms: C_20  and  C_21
REMARK    6  A    between atoms: C_21  and  C_23
REMARK    7  A    between atoms: C_23  and  C_24
REMARK    8  A    between atoms: C_23  and  C_25
REMARK                            x       y       z     vdW  Elec       q    Type
REMARK                         _______ _______ _______ _____ _____    ______ ____
ROOT
ATOM      1  C   UNL     1     -56.190 -41.686 -77.424  0.00  0.00    +0.000 A 
ATOM      2  N   UNL     1     -55.232 -40.699 -77.214  0.00  0.00    +0.000 N 
ATOM      3  C   UNL     1     -53.933 -41.013 -76.768  0.00  0.00    +0.000 A 
ATOM      4  C   UNL     1     -52.848 -40.133 -76.943  0.00  0.00    +0.000 A 
ATOM      5 BR   UNL     1     -53.041 -38.532 -77.942  0.00  0.00    +0.000 Br
ATOM      6  C   UNL     1     -51.587 -40.435 -76.421  0.00  0.00    +0.000 A 
ATOM      7  C   UNL     1     -51.390 -41.622 -75.722  0.00  0.00    +0.000 A 
ATOM      8  C   UNL     1     -52.459 -42.518 -75.543  0.00  0.00    +0.000 A 
ATOM      9 CL   UNL     1     -52.078 -43.989 -74.723  0.00  0.00    +0.000 Cl
ATOM     10  C   UNL     1     -53.734 -42.211 -76.063  0.00  0.00    +0.000 A 
ATOM     11  C   UNL     1     -54.932 -43.073 -75.900  0.00  0.00    +0.000 A 
ATOM     12  O   UNL     1     -54.997 -43.866 -74.965  0.00  0.00    +0.000 OA
ATOM     13  C   UNL     1     -56.075 -42.930 -76.901  0.00  0.00    +0.000 A 
ATOM     14  H   UNL     1     -55.307 -39.900 -77.859  0.00  0.00    +0.000 HD
ENDROOT
BRANCH   1  15
ATOM     15  S   UNL     1     -57.452 -41.150 -78.639  0.00  0.00    +0.000 S 
ATOM     16  O   UNL     1     -58.675 -41.941 -78.260  0.00  0.00    +0.000 OA
BRANCH  15  17
ATOM     17  C   UNL     1     -56.813 -41.796 -80.221  0.00  0.00    +0.000 C 
BRANCH  17  21
ATOM     18  C   UNL     1     -51.673 -42.357 -80.482  0.00  0.00    +0.000 C 
ATOM     19  C   UNL     1     -53.109 -42.002 -80.470  0.00  0.00    +0.000 A 
ATOM     20  C   UNL     1     -54.283 -42.695 -80.279  0.00  0.00    +0.000 A 
ATOM     21  C   UNL     1     -55.312 -41.714 -80.372  0.00  0.00    +0.000 A 
ATOM     22  N   UNL     1     -54.771 -40.510 -80.626  0.00  0.00    +0.000 NA
ATOM     23  O   UNL     1     -53.403 -40.694 -80.682  0.00  0.00    +0.000 OA
ENDBRANCH  17  21
ENDBRANCH  15  17
ENDBRANCH   1  15
BRANCH  13  24
ATOM     24  C   UNL     1     -56.880 -44.176 -77.195  0.00  0.00    +0.000 C 
ATOM     25  O   UNL     1     -57.904 -44.417 -76.557  0.00  0.00    +0.000 OA
BRANCH  24  26
ATOM     26  C   UNL     1     -56.395 -45.180 -78.242  0.00  0.00    +0.000 C 
ATOM     27  C   UNL     1     -55.051 -45.793 -77.858  0.00  0.00    +0.000 C 
ATOM     28  C   UNL     1     -57.427 -46.281 -78.500  0.00  0.00    +0.000 C 
ENDBRANCH  24  26
ENDBRANCH  13  24
TORSDOF 5
