REMARK VINA RESULT:    -5.455      3.529      6.640
REMARK INTER + INTRA:          -7.701
REMARK INTER:                  -7.021
REMARK INTRA:                  -0.680
REMARK UNBOUND:                -0.971
REMARK  Name = 
REMARK  6 active torsions:
REMARK  status: ('A' for Active; 'I' for Inactive)
REMARK    1  A    between atoms: C_1  and  C_2
REMARK    2  A    between atoms: C_2  and  C_4
REMARK    3  A    between atoms: C_5  and  S_6
REMARK    4  A    between atoms: S_6  and  C_8
REMARK    5  A    between atoms: C_8  and  C_9
REMARK    6  A    between atoms: C_11  and  C_12
REMARK                            x       y       z     vdW  Elec       q    Type
REMARK                         _______ _______ _______ _____ _____    ______ ____
ROOT
ATOM      1  C   UNL     1     -56.151 -41.937 -62.570  0.00  0.00    +0.000 A 
ATOM      2  C   UNL     1     -56.918 -41.113 -61.822  0.00  0.00    +0.000 A 
ATOM      3  N   UNL     1     -56.840 -39.735 -61.888  0.00  0.00    +0.000 N 
ATOM      4  C   UNL     1     -55.877 -39.059 -62.658  0.00  0.00    +0.000 A 
ATOM      5  C   UNL     1     -55.857 -37.653 -62.711  0.00  0.00    +0.000 A 
ATOM      6 BR   UNL     1     -57.086 -36.617 -61.698  0.00  0.00    +0.000 Br
ATOM      7  C   UNL     1     -54.939 -36.978 -63.511  0.00  0.00    +0.000 A 
ATOM      8  C   UNL     1     -54.029 -37.705 -64.273  0.00  0.00    +0.000 A 
ATOM      9  C   UNL     1     -54.046 -39.105 -64.259  0.00  0.00    +0.000 A 
ATOM     10 CL   UNL     1     -52.854 -39.865 -65.254  0.00  0.00    +0.000 Cl
ATOM     11  C   UNL     1     -54.992 -39.790 -63.469  0.00  0.00    +0.000 A 
ATOM     12  C   UNL     1     -55.096 -41.276 -63.417  0.00  0.00    +0.000 A 
ATOM     13  O   UNL     1     -54.296 -41.968 -64.035  0.00  0.00    +0.000 OA
ATOM     14  H   UNL     1     -57.183 -39.232 -61.069  0.00  0.00    +0.000 HD
ENDROOT
BRANCH   1  16
ATOM     15  C   UNL     1     -57.285 -44.090 -63.477  0.00  0.00    +0.000 C 
ATOM     16  C   UNL     1     -56.261 -43.439 -62.574  0.00  0.00    +0.000 C 
ATOM     17  O   UNL     1     -55.565 -44.143 -61.842  0.00  0.00    +0.000 OA
ENDBRANCH   1  16
BRANCH   2  18
ATOM     18  S   UNL     1     -58.026 -41.763 -60.528  0.00  0.00    +0.000 S 
ATOM     19  O   UNL     1     -58.346 -40.548 -59.700  0.00  0.00    +0.000 OA
BRANCH  18  20
ATOM     20  C   UNL     1     -59.512 -42.087 -61.542  0.00  0.00    +0.000 C 
BRANCH  20  21
ATOM     21  C   UNL     1     -60.288 -43.254 -61.029  0.00  0.00    +0.000 A 
ATOM     22  C   UNL     1     -60.229 -44.616 -61.429  0.00  0.00    +0.000 A 
ATOM     23  C   UNL     1     -61.099 -45.262 -60.587  0.00  0.00    +0.000 A 
ATOM     24  C   UNL     1     -61.535 -46.662 -60.427  0.00  0.00    +0.000 C 
ATOM     25  O   UNL     1     -61.642 -44.357 -59.731  0.00  0.00    +0.000 OA
ATOM     26  N   UNL     1     -61.132 -43.098 -60.000  0.00  0.00    +0.000 NA
ENDBRANCH  20  21
ENDBRANCH  18  20
ENDBRANCH   2  18
TORSDOF 4
