REMARK VINA RESULT:    -5.411      4.208      6.533
REMARK INTER + INTRA:          -7.786
REMARK INTER:                  -6.505
REMARK INTRA:                  -1.282
REMARK UNBOUND:                -0.794
REMARK  Name = 
REMARK  8 active torsions:
REMARK  status: ('A' for Active; 'I' for Inactive)
REMARK    1  A    between atoms: C_1  and  C_2
REMARK    2  A    between atoms: C_4  and  C_5
REMARK    3  A    between atoms: C_5  and  S_6
REMARK    4  A    between atoms: S_6  and  C_8
REMARK    5  A    between atoms: C_20  and  C_21
REMARK    6  A    between atoms: C_21  and  C_23
REMARK    7  A    between atoms: C_23  and  C_24
REMARK    8  A    between atoms: C_23  and  C_25
REMARK                            x       y       z     vdW  Elec       q    Type
REMARK                         _______ _______ _______ _____ _____    ______ ____
ROOT
ATOM      1  C   UNL     1     -58.064 -44.114 -77.632  0.00  0.00    +0.000 A 
ATOM      2  N   UNL     1     -58.028 -45.450 -78.018  0.00  0.00    +0.000 N 
ATOM      3  C   UNL     1     -57.153 -46.372 -77.411  0.00  0.00    +0.000 A 
ATOM      4  C   UNL     1     -57.371 -47.761 -77.468  0.00  0.00    +0.000 A 
ATOM      5 BR   UNL     1     -58.955 -48.470 -78.234  0.00  0.00    +0.000 Br
ATOM      6  C   UNL     1     -56.446 -48.657 -76.923  0.00  0.00    +0.000 A 
ATOM      7  C   UNL     1     -55.293 -48.177 -76.310  0.00  0.00    +0.000 A 
ATOM      8  C   UNL     1     -55.060 -46.792 -76.235  0.00  0.00    +0.000 A 
ATOM      9 CL   UNL     1     -53.633 -46.314 -75.389  0.00  0.00    +0.000 Cl
ATOM     10  C   UNL     1     -55.989 -45.888 -76.791  0.00  0.00    +0.000 A 
ATOM     11  C   UNL     1     -55.820 -44.412 -76.793  0.00  0.00    +0.000 A 
ATOM     12  O   UNL     1     -54.698 -43.922 -76.707  0.00  0.00    +0.000 OA
ATOM     13  C   UNL     1     -57.062 -43.536 -76.927  0.00  0.00    +0.000 A 
ATOM     14  H   UNL     1     -58.940 -45.822 -78.317  0.00  0.00    +0.000 HD
ENDROOT
BRANCH   1  15
ATOM     15  S   UNL     1     -59.688 -43.350 -78.004  0.00  0.00    +0.000 S 
ATOM     16  O   UNL     1     -60.673 -44.234 -77.287  0.00  0.00    +0.000 OA
BRANCH  15  17
ATOM     17  C   UNL     1     -59.874 -43.615 -79.799  0.00  0.00    +0.000 C 
BRANCH  17  21
ATOM     18  C   UNL     1     -55.775 -42.152 -82.602  0.00  0.00    +0.000 C 
ATOM     19  C   UNL     1     -57.023 -42.381 -81.841  0.00  0.00    +0.000 A 
ATOM     20  C   UNL     1     -57.596 -43.464 -81.214  0.00  0.00    +0.000 A 
ATOM     21  C   UNL     1     -58.804 -42.966 -80.645  0.00  0.00    +0.000 A 
ATOM     22  N   UNL     1     -58.943 -41.662 -80.942  0.00  0.00    +0.000 NA
ATOM     23  O   UNL     1     -57.833 -41.304 -81.682  0.00  0.00    +0.000 OA
ENDBRANCH  17  21
ENDBRANCH  15  17
ENDBRANCH   1  15
BRANCH  13  24
ATOM     24  C   UNL     1     -57.022 -42.190 -76.238  0.00  0.00    +0.000 C 
ATOM     25  O   UNL     1     -57.274 -42.102 -75.037  0.00  0.00    +0.000 OA
BRANCH  24  26
ATOM     26  C   UNL     1     -56.733 -40.920 -77.039  0.00  0.00    +0.000 C 
ATOM     27  C   UNL     1     -56.169 -41.239 -78.422  0.00  0.00    +0.000 C 
ATOM     28  C   UNL     1     -57.971 -40.028 -77.163  0.00  0.00    +0.000 C 
ENDBRANCH  24  26
ENDBRANCH  13  24
TORSDOF 5
