REMARK VINA RESULT:    -5.181      8.247     10.171
REMARK INTER + INTRA:          -7.605
REMARK INTER:                  -6.904
REMARK INTRA:                  -0.702
REMARK UNBOUND:                -0.910
REMARK  Name = 
REMARK  6 active torsions:
REMARK  status: ('A' for Active; 'I' for Inactive)
REMARK    1  A    between atoms: C_1  and  C_2
REMARK    2  A    between atoms: C_4  and  C_5
REMARK    3  A    between atoms: C_5  and  S_6
REMARK    4  A    between atoms: S_6  and  C_8
REMARK    5  A    between atoms: C_20  and  C_21
REMARK    6  A    between atoms: C_21  and  C_23
REMARK                            x       y       z     vdW  Elec       q    Type
REMARK                         _______ _______ _______ _____ _____    ______ ____
ROOT
ATOM      1  C   UNL     1     -54.818 -34.764 -61.654  0.00  0.00    +0.000 A 
ATOM      2  N   UNL     1     -56.141 -34.299 -61.782  0.00  0.00    +0.000 N 
ATOM      3  C   UNL     1     -56.464 -32.946 -61.484  0.00  0.00    +0.000 A 
ATOM      4  C   UNL     1     -57.635 -32.317 -61.946  0.00  0.00    +0.000 A 
ATOM      5 BR   UNL     1     -58.798 -33.187 -63.167  0.00  0.00    +0.000 Br
ATOM      6  C   UNL     1     -57.970 -31.018 -61.539  0.00  0.00    +0.000 A 
ATOM      7  C   UNL     1     -57.113 -30.320 -60.679  0.00  0.00    +0.000 A 
ATOM      8  C   UNL     1     -55.946 -30.922 -60.210  0.00  0.00    +0.000 A 
ATOM      9 CL   UNL     1     -54.922 -29.952 -59.213  0.00  0.00    +0.000 Cl
ATOM     10  C   UNL     1     -55.641 -32.236 -60.596  0.00  0.00    +0.000 A 
ATOM     11  C   UNL     1     -54.476 -32.984 -60.085  0.00  0.00    +0.000 A 
ATOM     12  O   UNL     1     -54.023 -32.784 -58.965  0.00  0.00    +0.000 OA
ATOM     13  C   UNL     1     -53.901 -34.067 -60.949  0.00  0.00    +0.000 A 
ATOM     14  H   UNL     1     -56.600 -34.657 -62.631  0.00  0.00    +0.000 HD
ENDROOT
BRANCH   1  15
ATOM     15  S   UNL     1     -54.418 -36.062 -62.854  0.00  0.00    +0.000 S 
ATOM     16  O   UNL     1     -54.961 -35.542 -64.156  0.00  0.00    +0.000 OA
BRANCH  15  17
ATOM     17  C   UNL     1     -55.342 -37.572 -62.444  0.00  0.00    +0.000 C 
BRANCH  17  21
ATOM     18  C   UNL     1     -56.049 -41.732 -65.345  0.00  0.00    +0.000 C 
ATOM     19  C   UNL     1     -55.647 -40.532 -64.588  0.00  0.00    +0.000 A 
ATOM     20  C   UNL     1     -56.299 -39.645 -63.765  0.00  0.00    +0.000 A 
ATOM     21  C   UNL     1     -55.284 -38.781 -63.297  0.00  0.00    +0.000 A 
ATOM     22  N   UNL     1     -54.104 -39.091 -63.864  0.00  0.00    +0.000 NA
ATOM     23  O   UNL     1     -54.337 -40.187 -64.668  0.00  0.00    +0.000 OA
ENDBRANCH  17  21
ENDBRANCH  15  17
ENDBRANCH   1  15
BRANCH  13  24
ATOM     24  C   UNL     1     -52.411 -34.062 -61.003  0.00  0.00    +0.000 C 
ATOM     25  O   UNL     1     -51.765 -34.871 -60.360  0.00  0.00    +0.000 OA
BRANCH  24  26
ATOM     26  C   UNL     1     -51.735 -33.092 -61.885  0.00  0.00    +0.000 C 
ATOM     27  C   UNL     1     -50.238 -33.160 -62.052  0.00  0.00    +0.000 C 
ATOM     28  C   UNL     1     -50.851 -32.004 -61.322  0.00  0.00    +0.000 C 
ENDBRANCH  24  26
ENDBRANCH  13  24
TORSDOF 5
