REMARK VINA RESULT:    -6.045      3.385      6.276
REMARK INTER + INTRA:          -8.865
REMARK INTER:                  -8.005
REMARK INTRA:                  -0.860
REMARK UNBOUND:                -1.054
REMARK  Name = 
REMARK  8 active torsions:
REMARK  status: ('A' for Active; 'I' for Inactive)
REMARK    1  A    between atoms: C_1  and  C_2
REMARK    2  A    between atoms: C_4  and  C_5
REMARK    3  A    between atoms: C_5  and  S_6
REMARK    4  A    between atoms: S_6  and  C_8
REMARK    5  A    between atoms: C_20  and  C_21
REMARK    6  A    between atoms: C_21  and  C_23
REMARK    7  A    between atoms: C_23  and  C_24
REMARK    8  A    between atoms: C_23  and  C_25
REMARK                            x       y       z     vdW  Elec       q    Type
REMARK                         _______ _______ _______ _____ _____    ______ ____
ROOT
ATOM      1  C   UNL     1     -55.133 -42.073 -77.775  0.00  0.00    +0.000 A 
ATOM      2  N   UNL     1     -55.400 -42.265 -79.127  0.00  0.00    +0.000 N 
ATOM      3  C   UNL     1     -56.536 -42.976 -79.562  0.00  0.00    +0.000 A 
ATOM      4  C   UNL     1     -57.054 -42.837 -80.864  0.00  0.00    +0.000 A 
ATOM      5 BR   UNL     1     -56.343 -41.552 -82.065  0.00  0.00    +0.000 Br
ATOM      6  C   UNL     1     -58.134 -43.612 -81.294  0.00  0.00    +0.000 A 
ATOM      7  C   UNL     1     -58.716 -44.534 -80.429  0.00  0.00    +0.000 A 
ATOM      8  C   UNL     1     -58.219 -44.683 -79.122  0.00  0.00    +0.000 A 
ATOM      9 CL   UNL     1     -59.066 -45.804 -78.118  0.00  0.00    +0.000 Cl
ATOM     10  C   UNL     1     -57.124 -43.906 -78.690  0.00  0.00    +0.000 A 
ATOM     11  C   UNL     1     -56.505 -44.011 -77.343  0.00  0.00    +0.000 A 
ATOM     12  O   UNL     1     -56.619 -45.046 -76.693  0.00  0.00    +0.000 OA
ATOM     13  C   UNL     1     -55.716 -42.820 -76.808  0.00  0.00    +0.000 A 
ATOM     14  H   UNL     1     -55.098 -41.485 -79.728  0.00  0.00    +0.000 HD
ENDROOT
BRANCH   1  15
ATOM     15  S   UNL     1     -54.101 -40.583 -77.500  0.00  0.00    +0.000 S 
ATOM     16  O   UNL     1     -53.908 -40.019 -78.882  0.00  0.00    +0.000 OA
BRANCH  15  17
ATOM     17  C   UNL     1     -52.512 -41.275 -76.930  0.00  0.00    +0.000 C 
BRANCH  17  21
ATOM     18  C   UNL     1     -48.817 -38.489 -74.608  0.00  0.00    +0.000 C 
ATOM     19  C   UNL     1     -49.949 -39.103 -75.336  0.00  0.00    +0.000 A 
ATOM     20  C   UNL     1     -50.325 -40.391 -75.644  0.00  0.00    +0.000 A 
ATOM     21  C   UNL     1     -51.557 -40.258 -76.349  0.00  0.00    +0.000 A 
ATOM     22  N   UNL     1     -51.876 -38.958 -76.467  0.00  0.00    +0.000 NA
ATOM     23  O   UNL     1     -50.876 -38.245 -75.833  0.00  0.00    +0.000 OA
ENDBRANCH  17  21
ENDBRANCH  15  17
ENDBRANCH   1  15
BRANCH  13  24
ATOM     24  C   UNL     1     -55.725 -42.617 -75.309  0.00  0.00    +0.000 C 
ATOM     25  O   UNL     1     -54.704 -42.814 -74.652  0.00  0.00    +0.000 OA
BRANCH  24  26
ATOM     26  C   UNL     1     -57.017 -42.230 -74.589  0.00  0.00    +0.000 C 
ATOM     27  C   UNL     1     -56.922 -42.472 -73.085  0.00  0.00    +0.000 C 
ATOM     28  C   UNL     1     -57.415 -40.778 -74.870  0.00  0.00    +0.000 C 
ENDBRANCH  24  26
ENDBRANCH  13  24
TORSDOF 5
