REMARK VINA RESULT:    -7.466      0.000      0.000
REMARK INTER + INTRA:         -10.522
REMARK INTER:                  -9.648
REMARK INTRA:                  -0.874
REMARK UNBOUND:                -0.874
REMARK  Name = 
REMARK  8 active torsions:
REMARK  status: ('A' for Active; 'I' for Inactive)
REMARK    1  A    between atoms: C_1  and  C_2
REMARK    2  A    between atoms: C_4  and  C_5
REMARK    3  A    between atoms: C_5  and  S_6
REMARK    4  A    between atoms: S_6  and  C_8
REMARK    5  A    between atoms: C_20  and  C_21
REMARK    6  A    between atoms: C_21  and  C_23
REMARK    7  A    between atoms: C_23  and  C_24
REMARK    8  A    between atoms: C_23  and  C_25
REMARK                            x       y       z     vdW  Elec       q    Type
REMARK                         _______ _______ _______ _____ _____    ______ ____
ROOT
ATOM      1  C   UNL     1     -55.872 -42.636 -76.556  0.00  0.00    +0.000 A 
ATOM      2  N   UNL     1     -54.567 -43.036 -76.286  0.00  0.00    +0.000 N 
ATOM      3  C   UNL     1     -53.506 -42.111 -76.241  0.00  0.00    +0.000 A 
ATOM      4  C   UNL     1     -52.294 -42.392 -75.581  0.00  0.00    +0.000 A 
ATOM      5 BR   UNL     1     -52.082 -43.982 -74.568  0.00  0.00    +0.000 Br
ATOM      6  C   UNL     1     -51.229 -41.489 -75.618  0.00  0.00    +0.000 A 
ATOM      7  C   UNL     1     -51.360 -40.289 -76.311  0.00  0.00    +0.000 A 
ATOM      8  C   UNL     1     -52.564 -39.985 -76.971  0.00  0.00    +0.000 A 
ATOM      9 CL   UNL     1     -52.633 -38.438 -77.735  0.00  0.00    +0.000 Cl
ATOM     10  C   UNL     1     -53.637 -40.900 -76.940  0.00  0.00    +0.000 A 
ATOM     11  C   UNL     1     -54.935 -40.688 -77.630  0.00  0.00    +0.000 A 
ATOM     12  O   UNL     1     -55.002 -39.935 -78.597  0.00  0.00    +0.000 OA
ATOM     13  C   UNL     1     -56.162 -41.441 -77.124  0.00  0.00    +0.000 A 
ATOM     14  H   UNL     1     -54.500 -43.833 -75.638  0.00  0.00    +0.000 HD
ENDROOT
BRANCH   1  15
ATOM     15  S   UNL     1     -57.093 -43.811 -75.856  0.00  0.00    +0.000 S 
ATOM     16  O   UNL     1     -57.802 -44.355 -77.067  0.00  0.00    +0.000 OA
BRANCH  15  17
ATOM     17  C   UNL     1     -58.246 -42.727 -74.949  0.00  0.00    +0.000 C 
BRANCH  17  21
ATOM     18  C   UNL     1     -55.793 -41.161 -70.668  0.00  0.00    +0.000 C 
ATOM     19  C   UNL     1     -56.574 -41.417 -71.898  0.00  0.00    +0.000 A 
ATOM     20  C   UNL     1     -56.659 -42.453 -72.800  0.00  0.00    +0.000 A 
ATOM     21  C   UNL     1     -57.649 -42.046 -73.740  0.00  0.00    +0.000 A 
ATOM     22  N   UNL     1     -58.107 -40.824 -73.418  0.00  0.00    +0.000 NA
ATOM     23  O   UNL     1     -57.439 -40.440 -72.271  0.00  0.00    +0.000 OA
ENDBRANCH  17  21
ENDBRANCH  15  17
ENDBRANCH   1  15
BRANCH  13  24
ATOM     24  C   UNL     1     -57.498 -40.750 -77.284  0.00  0.00    +0.000 C 
ATOM     25  O   UNL     1     -57.769 -39.762 -76.604  0.00  0.00    +0.000 OA
BRANCH  24  26
ATOM     26  C   UNL     1     -58.548 -41.312 -78.243  0.00  0.00    +0.000 C 
ATOM     27  C   UNL     1     -59.673 -40.313 -78.499  0.00  0.00    +0.000 C 
ATOM     28  C   UNL     1     -57.929 -41.765 -79.568  0.00  0.00    +0.000 C 
ENDBRANCH  24  26
ENDBRANCH  13  24
TORSDOF 5
