=
 OpenBabel09152517473D

 28 30  0  0  0  0  0  0  0  0999 V2000
  -55.9070  -42.5960  -76.5230 C   0  0  0  0  0  0  0  0  0  0  0  0
  -54.5990  -42.9990  -76.2690 N   0  0  0  0  0  0  0  0  0  0  0  0
  -53.5350  -42.0770  -76.2440 C   0  0  0  0  0  0  0  0  0  0  0  0
  -52.3160  -42.3580  -75.5980 C   0  0  0  0  0  0  0  0  0  0  0  0
  -52.0940  -43.9420  -74.5790 Br  0  0  0  0  0  0  0  0  0  0  0  0
  -51.2480  -41.4570  -75.6550 C   0  0  0  0  0  3  0  0  0  0  0  0
  -51.3840  -40.2610  -76.3530 C   0  0  0  0  0  3  0  0  0  0  0  0
  -52.5970  -39.9580  -76.9990 C   0  0  0  0  0  0  0  0  0  0  0  0
  -52.6710  -38.4150  -77.7710 Cl  0  0  0  0  0  0  0  0  0  0  0  0
  -53.6720  -40.8690  -76.9480 C   0  0  0  0  0  0  0  0  0  0  0  0
  -54.9790  -40.6570  -77.6220 C   0  0  0  0  0  0  0  0  0  0  0  0
  -55.0560  -39.9100  -78.5920 O   0  0  0  0  0  0  0  0  0  0  0  0
  -56.2010  -41.4040  -77.0940 C   0  0  0  0  0  0  0  0  0  0  0  0
  -54.5260  -43.7910  -75.6170 H   0  0  0  0  0  0  0  0  0  0  0  0
  -57.1210  -43.7630  -75.8000 S   0  0  2  0  0  0  0  0  0  0  0  0
  -57.8920  -44.2640  -76.9920 O   0  0  0  0  0  0  0  0  0  0  0  0
  -58.2140  -42.6780  -74.8210 C   0  0  0  0  0  2  0  0  0  0  0  0
  -55.6550  -41.2520  -70.5520 C   0  0  0  0  0  1  0  0  0  0  0  0
  -56.4360  -41.4590  -71.7920 C   0  0  0  0  0  0  0  0  0  0  0  0
  -56.6580  -42.5220  -72.6370 C   0  0  0  0  0  3  0  0  0  0  0  0
  -57.5480  -42.0250  -73.6320 C   0  0  0  0  0  0  0  0  0  0  0  0
  -57.8180  -40.7300  -73.3950 N   0  0  0  0  0  0  0  0  0  0  0  0
  -57.1280  -40.3840  -72.2490 O   0  0  0  0  0  0  0  0  0  0  0  0
  -57.5360  -40.7090  -77.2410 C   0  0  0  0  0  0  0  0  0  0  0  0
  -57.8080  -39.7350  -76.5400 O   0  0  0  0  0  0  0  0  0  0  0  0
  -58.5860  -41.2510  -78.2120 C   0  0  0  0  0  3  0  0  0  0  0  0
  -59.6840  -40.2260  -78.4880 C   0  0  0  0  0  1  0  0  0  0  0  0
  -57.9600  -41.7260  -79.5260 C   0  0  0  0  0  1  0  0  0  0  0  0
  1  2  1  0  0  0  0
  1 15  1  0  0  0  0
  2  3  1  0  0  0  0
  2 14  1  0  0  0  0
  3  4  1  0  0  0  0
  4  5  1  0  0  0  0
  6  4  2  0  0  0  0
  7  6  1  0  0  0  0
  8 10  1  0  0  0  0
  8  7  2  0  0  0  0
  9  8  1  0  0  0  0
 10  3  2  0  0  0  0
 11 13  1  0  0  0  0
 11 10  1  0  0  0  0
 12 11  2  0  0  0  0
 13  1  2  0  0  0  0
 15 16  2  6  0  0  0
 15 17  1  0  0  0  0
 17 21  1  0  0  0  0
 19 18  1  0  0  0  0
 20 19  2  0  0  0  0
 21 22  2  0  0  0  0
 21 20  1  0  0  0  0
 22 23  1  0  0  0  0
 23 19  1  0  0  0  0
 24 13  1  0  0  0  0
 24 25  2  0  0  0  0
 26 24  1  0  0  0  0
 27 26  1  0  0  0  0
 28 26  1  0  0  0  0
M  END
>  <MODEL>
1

>  <REMARK>
 VINA RESULT:    -7.469      0.000      0.000
 INTER + INTRA:         -10.572
 INTER:                  -9.652
 INTRA:                  -0.920
 UNBOUND:                -0.920
  Name = 
  8 active torsions:
  status: ('A' for Active; 'I' for Inactive)
    1  A    between atoms: C_1  and  C_2
    2  A    between atoms: C_4  and  C_5
    3  A    between atoms: C_5  and  S_6
    4  A    between atoms: S_6  and  C_8
    5  A    between atoms: C_20  and  C_21
    6  A    between atoms: C_21  and  C_23
    7  A    between atoms: C_23  and  C_24
    8  A    between atoms: C_23  and  C_25
                            x       y       z     vdW  Elec       q    Type
                         _______ _______ _______ _____ _____    ______ ____

>  <TORSDO>
F 5

$$$$
