REMARK VINA RESULT:    -6.207     12.035     15.096
REMARK INTER + INTRA:          -8.656
REMARK INTER:                  -7.771
REMARK INTRA:                  -0.885
REMARK UNBOUND:                -0.635
REMARK  Name = 
REMARK  6 active torsions:
REMARK  status: ('A' for Active; 'I' for Inactive)
REMARK    1  A    between atoms: C_1  and  C_2
REMARK    2  A    between atoms: C_4  and  C_5
REMARK    3  A    between atoms: C_5  and  S_6
REMARK    4  A    between atoms: S_6  and  C_8
REMARK    5  A    between atoms: C_20  and  C_21
REMARK    6  A    between atoms: C_21  and  C_23
REMARK                            x       y       z     vdW  Elec       q    Type
REMARK                         _______ _______ _______ _____ _____    ______ ____
ROOT
ATOM      1  C   UNL     1     -66.047 -47.818 -55.633  0.00  0.00    +0.000 A 
ATOM      2  N   UNL     1     -66.856 -48.914 -55.988  0.00  0.00    +0.000 N 
ATOM      3  C   UNL     1     -67.000 -50.022 -55.109  0.00  0.00    +0.000 A 
ATOM      4  C   UNL     1     -68.060 -50.944 -55.201  0.00  0.00    +0.000 A 
ATOM      5 BR   UNL     1     -69.493 -50.668 -56.413  0.00  0.00    +0.000 Br
ATOM      6  C   UNL     1     -68.104 -52.083 -54.386  0.00  0.00    +0.000 A 
ATOM      7  C   UNL     1     -67.093 -52.298 -53.442  0.00  0.00    +0.000 A 
ATOM      8  C   UNL     1     -66.033 -51.398 -53.330  0.00  0.00    +0.000 A 
ATOM      9 CL   UNL     1     -64.877 -51.715 -52.088  0.00  0.00    +0.000 Cl
ATOM     10  C   UNL     1     -65.982 -50.280 -54.177  0.00  0.00    +0.000 A 
ATOM     11  C   UNL     1     -64.860 -49.322 -54.191  0.00  0.00    +0.000 A 
ATOM     12  O   UNL     1     -63.717 -49.663 -53.914  0.00  0.00    +0.000 OA
ATOM     13  C   UNL     1     -65.141 -47.917 -54.635  0.00  0.00    +0.000 A 
ATOM     14  H   UNL     1     -67.737 -48.620 -56.431  0.00  0.00    +0.000 HD
ENDROOT
BRANCH   1  15
ATOM     15  S   UNL     1     -66.659 -46.252 -56.309  0.00  0.00    +0.000 S 
ATOM     16  O   UNL     1     -68.149 -46.325 -56.120  0.00  0.00    +0.000 OA
BRANCH  15  17
ATOM     17  C   UNL     1     -66.340 -46.198 -58.097  0.00  0.00    +0.000 C 
BRANCH  17  21
ATOM     18  C   UNL     1     -62.134 -47.231 -60.829  0.00  0.00    +0.000 C 
ATOM     19  C   UNL     1     -63.213 -46.852 -59.897  0.00  0.00    +0.000 A 
ATOM     20  C   UNL     1     -64.586 -46.878 -59.946  0.00  0.00    +0.000 A 
ATOM     21  C   UNL     1     -64.995 -46.457 -58.661  0.00  0.00    +0.000 A 
ATOM     22  N   UNL     1     -63.929 -46.131 -57.910  0.00  0.00    +0.000 NA
ATOM     23  O   UNL     1     -62.817 -46.381 -58.687  0.00  0.00    +0.000 OA
ENDBRANCH  17  21
ENDBRANCH  15  17
ENDBRANCH   1  15
BRANCH  13  24
ATOM     24  C   UNL     1     -64.499 -46.878 -53.779  0.00  0.00    +0.000 C 
ATOM     25  O   UNL     1     -63.760 -46.042 -54.269  0.00  0.00    +0.000 OA
BRANCH  24  26
ATOM     26  C   UNL     1     -64.812 -46.852 -52.338  0.00  0.00    +0.000 C 
ATOM     27  C   UNL     1     -64.141 -45.833 -51.452  0.00  0.00    +0.000 C 
ATOM     28  C   UNL     1     -63.796 -47.284 -51.308  0.00  0.00    +0.000 C 
ENDBRANCH  24  26
ENDBRANCH  13  24
TORSDOF 5
