REMARK VINA RESULT:    -5.036      4.123      6.563
REMARK INTER + INTRA:          -7.185
REMARK INTER:                  -6.237
REMARK INTRA:                  -0.948
REMARK UNBOUND:                -0.971
REMARK  Name = 
REMARK  6 active torsions:
REMARK  status: ('A' for Active; 'I' for Inactive)
REMARK    1  A    between atoms: C_1  and  C_2
REMARK    2  A    between atoms: C_2  and  C_4
REMARK    3  A    between atoms: C_5  and  S_6
REMARK    4  A    between atoms: S_6  and  C_8
REMARK    5  A    between atoms: C_8  and  C_9
REMARK    6  A    between atoms: C_11  and  C_12
REMARK                            x       y       z     vdW  Elec       q    Type
REMARK                         _______ _______ _______ _____ _____    ______ ____
ROOT
ATOM      1  C   UNL     1     -56.573 -36.926 -62.301  0.00  0.00    +0.000 A 
ATOM      2  C   UNL     1     -57.499 -37.867 -62.013  0.00  0.00    +0.000 A 
ATOM      3  N   UNL     1     -57.367 -39.196 -62.367  0.00  0.00    +0.000 N 
ATOM      4  C   UNL     1     -56.308 -39.674 -63.159  0.00  0.00    +0.000 A 
ATOM      5  C   UNL     1     -56.205 -41.044 -63.471  0.00  0.00    +0.000 A 
ATOM      6 BR   UNL     1     -57.523 -42.282 -62.887  0.00  0.00    +0.000 Br
ATOM      7  C   UNL     1     -55.132 -41.532 -64.212  0.00  0.00    +0.000 A 
ATOM      8  C   UNL     1     -54.145 -40.654 -64.649  0.00  0.00    +0.000 A 
ATOM      9  C   UNL     1     -54.210 -39.293 -64.329  0.00  0.00    +0.000 A 
ATOM     10 CL   UNL     1     -52.912 -38.330 -64.945  0.00  0.00    +0.000 Cl
ATOM     11  C   UNL     1     -55.282 -38.801 -63.557  0.00  0.00    +0.000 A 
ATOM     12  C   UNL     1     -55.413 -37.373 -63.150  0.00  0.00    +0.000 A 
ATOM     13  O   UNL     1     -54.595 -36.548 -63.538  0.00  0.00    +0.000 OA
ATOM     14  H   UNL     1     -58.235 -39.728 -62.422  0.00  0.00    +0.000 HD
ENDROOT
BRANCH   1  16
ATOM     15  C   UNL     1     -57.286 -34.479 -62.804  0.00  0.00    +0.000 C 
ATOM     16  C   UNL     1     -56.654 -35.486 -61.868  0.00  0.00    +0.000 C 
ATOM     17  O   UNL     1     -56.193 -35.104 -60.792  0.00  0.00    +0.000 OA
ENDBRANCH   1  16
BRANCH   2  18
ATOM     18  S   UNL     1     -59.100 -37.424 -61.259  0.00  0.00    +0.000 S 
ATOM     19  O   UNL     1     -59.924 -36.971 -62.434  0.00  0.00    +0.000 OA
BRANCH  18  20
ATOM     20  C   UNL     1     -59.703 -39.097 -60.836  0.00  0.00    +0.000 C 
BRANCH  20  21
ATOM     21  C   UNL     1     -60.798 -39.537 -61.750  0.00  0.00    +0.000 A 
ATOM     22  C   UNL     1     -62.196 -39.311 -61.647  0.00  0.00    +0.000 A 
ATOM     23  C   UNL     1     -62.722 -39.873 -62.784  0.00  0.00    +0.000 A 
ATOM     24  C   UNL     1     -64.084 -40.011 -63.335  0.00  0.00    +0.000 C 
ATOM     25  O   UNL     1     -61.712 -40.397 -63.527  0.00  0.00    +0.000 OA
ATOM     26  N   UNL     1     -60.504 -40.184 -62.886  0.00  0.00    +0.000 NA
ENDBRANCH  20  21
ENDBRANCH  18  20
ENDBRANCH   2  18
TORSDOF 4
