REMARK VINA RESULT:    -6.388     10.833     13.541
REMARK INTER + INTRA:          -9.015
REMARK INTER:                  -7.767
REMARK INTRA:                  -1.248
REMARK UNBOUND:                -0.760
REMARK  Name = 
REMARK  8 active torsions:
REMARK  status: ('A' for Active; 'I' for Inactive)
REMARK    1  A    between atoms: C_1  and  C_2
REMARK    2  A    between atoms: C_4  and  C_5
REMARK    3  A    between atoms: C_5  and  S_6
REMARK    4  A    between atoms: S_6  and  C_8
REMARK    5  A    between atoms: C_20  and  C_21
REMARK    6  A    between atoms: C_21  and  C_23
REMARK    7  A    between atoms: C_23  and  C_24
REMARK    8  A    between atoms: C_23  and  C_25
REMARK                            x       y       z     vdW  Elec       q    Type
REMARK                         _______ _______ _______ _____ _____    ______ ____
ROOT
ATOM      1  C   UNL     1     -55.759 -42.788 -77.505  0.00  0.00    +0.000 A 
ATOM      2  N   UNL     1     -57.047 -43.138 -77.111  0.00  0.00    +0.000 N 
ATOM      3  C   UNL     1     -57.571 -42.742 -75.865  0.00  0.00    +0.000 A 
ATOM      4  C   UNL     1     -58.955 -42.708 -75.611  0.00  0.00    +0.000 A 
ATOM      5 BR   UNL     1     -60.209 -43.042 -76.994  0.00  0.00    +0.000 Br
ATOM      6  C   UNL     1     -59.446 -42.387 -74.342  0.00  0.00    +0.000 A 
ATOM      7  C   UNL     1     -58.561 -42.089 -73.310  0.00  0.00    +0.000 A 
ATOM      8  C   UNL     1     -57.174 -42.109 -73.545  0.00  0.00    +0.000 A 
ATOM      9 CL   UNL     1     -56.179 -41.653 -72.209  0.00  0.00    +0.000 Cl
ATOM     10  C   UNL     1     -56.679 -42.440 -74.823  0.00  0.00    +0.000 A 
ATOM     11  C   UNL     1     -55.235 -42.521 -75.164  0.00  0.00    +0.000 A 
ATOM     12  O   UNL     1     -54.406 -42.726 -74.282  0.00  0.00    +0.000 OA
ATOM     13  C   UNL     1     -54.820 -42.367 -76.624  0.00  0.00    +0.000 A 
ATOM     14  H   UNL     1     -57.721 -43.193 -77.887  0.00  0.00    +0.000 HD
ENDROOT
BRANCH   1  15
ATOM     15  S   UNL     1     -55.598 -42.766 -79.330  0.00  0.00    +0.000 S 
ATOM     16  O   UNL     1     -57.014 -42.608 -79.814  0.00  0.00    +0.000 OA
BRANCH  15  17
ATOM     17  C   UNL     1     -55.040 -44.459 -79.722  0.00  0.00    +0.000 C 
BRANCH  17  21
ATOM     18  C   UNL     1     -55.485 -48.035 -76.005  0.00  0.00    +0.000 C 
ATOM     19  C   UNL     1     -55.563 -47.032 -77.090  0.00  0.00    +0.000 A 
ATOM     20  C   UNL     1     -54.677 -46.152 -77.669  0.00  0.00    +0.000 A 
ATOM     21  C   UNL     1     -55.420 -45.499 -78.695  0.00  0.00    +0.000 A 
ATOM     22  N   UNL     1     -56.684 -45.958 -78.704  0.00  0.00    +0.000 NA
ATOM     23  O   UNL     1     -56.766 -46.912 -77.708  0.00  0.00    +0.000 OA
ENDBRANCH  17  21
ENDBRANCH  15  17
ENDBRANCH   1  15
BRANCH  13  24
ATOM     24  C   UNL     1     -53.468 -41.743 -76.884  0.00  0.00    +0.000 C 
ATOM     25  O   UNL     1     -52.490 -42.455 -77.111  0.00  0.00    +0.000 OA
BRANCH  24  26
ATOM     26  C   UNL     1     -53.288 -40.226 -76.803  0.00  0.00    +0.000 C 
ATOM     27  C   UNL     1     -51.842 -39.843 -76.498  0.00  0.00    +0.000 C 
ATOM     28  C   UNL     1     -53.765 -39.524 -78.077  0.00  0.00    +0.000 C 
ENDBRANCH  24  26
ENDBRANCH  13  24
TORSDOF 5
