REMARK VINA RESULT:    -6.519      3.382      5.513
REMARK INTER + INTRA:          -9.336
REMARK INTER:                  -8.478
REMARK INTRA:                  -0.858
REMARK UNBOUND:                -0.911
REMARK  Name = 
REMARK  6 active torsions:
REMARK  status: ('A' for Active; 'I' for Inactive)
REMARK    1  A    between atoms: C_1  and  C_2
REMARK    2  A    between atoms: C_4  and  C_5
REMARK    3  A    between atoms: C_5  and  S_6
REMARK    4  A    between atoms: S_6  and  C_8
REMARK    5  A    between atoms: C_20  and  C_21
REMARK    6  A    between atoms: C_21  and  C_23
REMARK                            x       y       z     vdW  Elec       q    Type
REMARK                         _______ _______ _______ _____ _____    ______ ____
ROOT
ATOM      1  C   UNL     1     -57.524 -43.058 -77.299  0.00  0.00    +0.000 A 
ATOM      2  N   UNL     1     -57.123 -44.367 -77.632  0.00  0.00    +0.000 N 
ATOM      3  C   UNL     1     -56.070 -45.004 -76.919  0.00  0.00    +0.000 A 
ATOM      4  C   UNL     1     -55.877 -46.398 -76.919  0.00  0.00    +0.000 A 
ATOM      5 BR   UNL     1     -57.132 -47.561 -77.737  0.00  0.00    +0.000 Br
ATOM      6  C   UNL     1     -54.763 -46.975 -76.294  0.00  0.00    +0.000 A 
ATOM      7  C   UNL     1     -53.838 -46.158 -75.634  0.00  0.00    +0.000 A 
ATOM      8  C   UNL     1     -54.010 -44.773 -75.619  0.00  0.00    +0.000 A 
ATOM      9 CL   UNL     1     -52.854 -43.861 -74.717  0.00  0.00    +0.000 Cl
ATOM     10  C   UNL     1     -55.110 -44.205 -76.279  0.00  0.00    +0.000 A 
ATOM     11  C   UNL     1     -55.327 -42.750 -76.390  0.00  0.00    +0.000 A 
ATOM     12  O   UNL     1     -54.393 -41.958 -76.420  0.00  0.00    +0.000 OA
ATOM     13  C   UNL     1     -56.736 -42.259 -76.547  0.00  0.00    +0.000 A 
ATOM     14  H   UNL     1     -57.924 -44.983 -77.825  0.00  0.00    +0.000 HD
ENDROOT
BRANCH   1  15
ATOM     15  S   UNL     1     -59.292 -42.779 -77.585  0.00  0.00    +0.000 S 
ATOM     16  O   UNL     1     -59.881 -44.162 -77.637  0.00  0.00    +0.000 OA
BRANCH  15  17
ATOM     17  C   UNL     1     -59.530 -42.024 -79.220  0.00  0.00    +0.000 C 
BRANCH  17  21
ATOM     18  C   UNL     1     -61.549 -37.322 -79.024  0.00  0.00    +0.000 C 
ATOM     19  C   UNL     1     -61.025 -38.676 -79.286  0.00  0.00    +0.000 A 
ATOM     20  C   UNL     1     -60.314 -39.595 -78.552  0.00  0.00    +0.000 A 
ATOM     21  C   UNL     1     -60.231 -40.730 -79.390  0.00  0.00    +0.000 A 
ATOM     22  N   UNL     1     -60.799 -40.478 -80.583  0.00  0.00    +0.000 NA
ATOM     23  O   UNL     1     -61.295 -39.193 -80.511  0.00  0.00    +0.000 OA
ENDBRANCH  17  21
ENDBRANCH  15  17
ENDBRANCH   1  15
BRANCH  13  24
ATOM     24  C   UNL     1     -57.055 -41.072 -75.703  0.00  0.00    +0.000 C 
ATOM     25  O   UNL     1     -57.341 -40.005 -76.218  0.00  0.00    +0.000 OA
BRANCH  24  26
ATOM     26  C   UNL     1     -57.065 -41.224 -74.236  0.00  0.00    +0.000 C 
ATOM     27  C   UNL     1     -57.644 -42.474 -73.624  0.00  0.00    +0.000 C 
ATOM     28  C   UNL     1     -58.354 -41.166 -73.452  0.00  0.00    +0.000 C 
ENDBRANCH  24  26
ENDBRANCH  13  24
TORSDOF 5
