REMARK VINA RESULT:    -6.229      3.115      5.706
REMARK INTER + INTRA:          -8.728
REMARK INTER:                  -7.902
REMARK INTRA:                  -0.826
REMARK UNBOUND:                -1.042
REMARK  Name = 
REMARK  6 active torsions:
REMARK  status: ('A' for Active; 'I' for Inactive)
REMARK    1  A    between atoms: C_1  and  C_2
REMARK    2  A    between atoms: C_2  and  C_4
REMARK    3  A    between atoms: C_5  and  S_6
REMARK    4  A    between atoms: S_6  and  C_8
REMARK    5  A    between atoms: C_8  and  C_9
REMARK    6  A    between atoms: C_11  and  C_12
REMARK                            x       y       z     vdW  Elec       q    Type
REMARK                         _______ _______ _______ _____ _____    ______ ____
ROOT
ATOM      1  C   UNL     1     -56.556 -41.577 -77.411  0.00  0.00    +0.000 A 
ATOM      2  C   UNL     1     -55.227 -41.823 -77.400  0.00  0.00    +0.000 A 
ATOM      3  N   UNL     1     -54.465 -41.935 -78.546  0.00  0.00    +0.000 N 
ATOM      4  C   UNL     1     -55.018 -41.907 -79.834  0.00  0.00    +0.000 A 
ATOM      5  C   UNL     1     -54.195 -42.015 -80.974  0.00  0.00    +0.000 A 
ATOM      6 BR   UNL     1     -52.321 -42.279 -80.799  0.00  0.00    +0.000 Br
ATOM      7  C   UNL     1     -54.728 -41.929 -82.255  0.00  0.00    +0.000 A 
ATOM      8  C   UNL     1     -56.095 -41.724 -82.421  0.00  0.00    +0.000 A 
ATOM      9  C   UNL     1     -56.932 -41.594 -81.305  0.00  0.00    +0.000 A 
ATOM     10 CL   UNL     1     -58.606 -41.358 -81.668  0.00  0.00    +0.000 Cl
ATOM     11  C   UNL     1     -56.390 -41.664 -80.005  0.00  0.00    +0.000 A 
ATOM     12  C   UNL     1     -57.209 -41.523 -78.768  0.00  0.00    +0.000 A 
ATOM     13  O   UNL     1     -58.425 -41.401 -78.850  0.00  0.00    +0.000 OA
ATOM     14  H   UNL     1     -53.582 -42.436 -78.449  0.00  0.00    +0.000 HD
ENDROOT
BRANCH   1  16
ATOM     15  C   UNL     1     -58.133 -42.590 -75.607  0.00  0.00    +0.000 C 
ATOM     16  C   UNL     1     -57.404 -41.394 -76.178  0.00  0.00    +0.000 C 
ATOM     17  O   UNL     1     -57.537 -40.297 -75.640  0.00  0.00    +0.000 OA
ENDBRANCH   1  16
BRANCH   2  18
ATOM     18  S   UNL     1     -54.341 -42.173 -75.845  0.00  0.00    +0.000 S 
ATOM     19  O   UNL     1     -54.760 -43.582 -75.511  0.00  0.00    +0.000 OA
BRANCH  18  20
ATOM     20  C   UNL     1     -52.638 -42.295 -76.497  0.00  0.00    +0.000 C 
BRANCH  20  21
ATOM     21  C   UNL     1     -51.824 -41.076 -76.217  0.00  0.00    +0.000 A 
ATOM     22  C   UNL     1     -50.557 -40.945 -75.591  0.00  0.00    +0.000 A 
ATOM     23  C   UNL     1     -50.282 -39.602 -75.639  0.00  0.00    +0.000 A 
ATOM     24  C   UNL     1     -49.175 -38.755 -75.158  0.00  0.00    +0.000 C 
ATOM     25  O   UNL     1     -51.295 -38.964 -76.284  0.00  0.00    +0.000 OA
ATOM     26  N   UNL     1     -52.259 -39.884 -76.655  0.00  0.00    +0.000 NA
ENDBRANCH  20  21
ENDBRANCH  18  20
ENDBRANCH   2  18
TORSDOF 4
