REMARK VINA RESULT:    -6.121     10.629     12.986
REMARK INTER + INTRA:          -9.257
REMARK INTER:                  -8.059
REMARK INTRA:                  -1.198
REMARK UNBOUND:                -1.347
REMARK  Name = 
REMARK  6 active torsions:
REMARK  status: ('A' for Active; 'I' for Inactive)
REMARK    1  A    between atoms: C_1  and  C_2
REMARK    2  A    between atoms: C_2  and  C_4
REMARK    3  A    between atoms: C_5  and  S_6
REMARK    4  A    between atoms: S_6  and  C_8
REMARK    5  A    between atoms: C_8  and  C_9
REMARK    6  A    between atoms: C_13  and  C_14
REMARK                            x       y       z     vdW  Elec       q    Type
REMARK                         _______ _______ _______ _____ _____    ______ ____
ROOT
ATOM      1  C   UNL     1     -55.114 -44.131 -76.551  0.00  0.00    +0.000 A 
ATOM      2  C   UNL     1     -56.243 -43.559 -77.028  0.00  0.00    +0.000 A 
ATOM      3  N   UNL     1     -57.354 -44.288 -77.413  0.00  0.00    +0.000 N 
ATOM      4  C   UNL     1     -57.361 -45.694 -77.474  0.00  0.00    +0.000 A 
ATOM      5  C   UNL     1     -58.511 -46.398 -77.874  0.00  0.00    +0.000 A 
ATOM      6 BR   UNL     1     -60.076 -45.477 -78.434  0.00  0.00    +0.000 Br
ATOM      7  C   UNL     1     -58.541 -47.793 -77.872  0.00  0.00    +0.000 A 
ATOM      8  C   UNL     1     -57.418 -48.506 -77.465  0.00  0.00    +0.000 A 
ATOM      9  C   UNL     1     -56.267 -47.832 -77.047  0.00  0.00    +0.000 A 
ATOM     10 CL   UNL     1     -54.948 -48.854 -76.583  0.00  0.00    +0.000 Cl
ATOM     11  C   UNL     1     -56.244 -46.421 -77.026  0.00  0.00    +0.000 A 
ATOM     12  C   UNL     1     -55.074 -45.635 -76.556  0.00  0.00    +0.000 A 
ATOM     13  O   UNL     1     -54.057 -46.218 -76.198  0.00  0.00    +0.000 OA
ATOM     14  H   UNL     1     -58.004 -43.813 -78.041  0.00  0.00    +0.000 HD
ENDROOT
BRANCH   1  16
ATOM     15  C   UNL     1     -53.839 -43.032 -74.568  0.00  0.00    +0.000 C 
ATOM     16  C   UNL     1     -53.911 -43.375 -76.042  0.00  0.00    +0.000 C 
ATOM     17  O   UNL     1     -53.010 -43.000 -76.789  0.00  0.00    +0.000 OA
ENDBRANCH   1  16
BRANCH   2  18
ATOM     18  S   UNL     1     -56.314 -41.763 -77.367  0.00  0.00    +0.000 S 
ATOM     19  O   UNL     1     -56.385 -41.695 -78.869  0.00  0.00    +0.000 OA
BRANCH  18  20
ATOM     20  C   UNL     1     -58.000 -41.373 -76.763  0.00  0.00    +0.000 C 
BRANCH  20  21
ATOM     21  C   UNL     1     -58.123 -41.457 -75.248  0.00  0.00    +0.000 A 
ATOM     22  C   UNL     1     -57.059 -41.059 -74.424  0.00  0.00    +0.000 A 
ATOM     23  C   UNL     1     -57.163 -41.145 -73.031  0.00  0.00    +0.000 A 
ATOM     24  C   UNL     1     -58.325 -41.638 -72.438  0.00  0.00    +0.000 A 
ATOM     25  C   UNL     1     -59.386 -42.059 -73.235  0.00  0.00    +0.000 A 
ATOM     26  C   UNL     1     -59.283 -41.975 -74.637  0.00  0.00    +0.000 A 
BRANCH  25  27
ATOM     27  C   UNL     1     -60.580 -42.586 -72.630  0.00  0.00    +0.000 C 
ATOM     28  N   UNL     1     -61.550 -42.995 -72.131  0.00  0.00    +0.000 NA
ENDBRANCH  25  27
ENDBRANCH  20  21
ENDBRANCH  18  20
ENDBRANCH   2  18
TORSDOF 5
