REMARK VINA RESULT:    -4.804     12.921     15.961
REMARK INTER + INTRA:          -7.009
REMARK INTER:                  -6.336
REMARK INTRA:                  -0.672
REMARK UNBOUND:                -1.082
REMARK  Name = 
REMARK  6 active torsions:
REMARK  status: ('A' for Active; 'I' for Inactive)
REMARK    1  A    between atoms: C_1  and  C_2
REMARK    2  A    between atoms: C_2  and  C_4
REMARK    3  A    between atoms: C_5  and  S_6
REMARK    4  A    between atoms: S_6  and  C_8
REMARK    5  A    between atoms: C_8  and  C_9
REMARK    6  A    between atoms: C_11  and  C_12
REMARK                            x       y       z     vdW  Elec       q    Type
REMARK                         _______ _______ _______ _____ _____    ______ ____
ROOT
ATOM      1  C   UNL     1     -64.928 -46.254 -57.473  0.00  0.00    +0.000 A 
ATOM      2  C   UNL     1     -65.612 -47.215 -56.813  0.00  0.00    +0.000 A 
ATOM      3  N   UNL     1     -66.869 -47.648 -57.185  0.00  0.00    +0.000 N 
ATOM      4  C   UNL     1     -67.620 -47.026 -58.195  0.00  0.00    +0.000 A 
ATOM      5  C   UNL     1     -68.917 -47.474 -58.507  0.00  0.00    +0.000 A 
ATOM      6 BR   UNL     1     -69.731 -48.876 -57.515  0.00  0.00    +0.000 Br
ATOM      7  C   UNL     1     -69.645 -46.898 -59.544  0.00  0.00    +0.000 A 
ATOM      8  C   UNL     1     -69.079 -45.870 -60.292  0.00  0.00    +0.000 A 
ATOM      9  C   UNL     1     -67.781 -45.421 -60.017  0.00  0.00    +0.000 A 
ATOM     10 CL   UNL     1     -67.221 -44.133 -61.025  0.00  0.00    +0.000 Cl
ATOM     11  C   UNL     1     -67.037 -46.012 -58.975  0.00  0.00    +0.000 A 
ATOM     12  C   UNL     1     -65.652 -45.595 -58.621  0.00  0.00    +0.000 A 
ATOM     13  O   UNL     1     -65.112 -44.684 -59.233  0.00  0.00    +0.000 OA
ATOM     14  H   UNL     1     -67.418 -48.087 -56.442  0.00  0.00    +0.000 HD
ENDROOT
BRANCH   1  16
ATOM     15  C   UNL     1     -62.349 -46.396 -57.811  0.00  0.00    +0.000 C 
ATOM     16  C   UNL     1     -63.541 -45.786 -57.112  0.00  0.00    +0.000 C 
ATOM     17  O   UNL     1     -63.354 -44.925 -56.250  0.00  0.00    +0.000 OA
ENDBRANCH   1  16
BRANCH   2  18
ATOM     18  S   UNL     1     -64.988 -47.918 -55.250  0.00  0.00    +0.000 S 
ATOM     19  O   UNL     1     -65.232 -46.818 -54.251  0.00  0.00    +0.000 OA
BRANCH  18  20
ATOM     20  C   UNL     1     -66.288 -49.170 -54.946  0.00  0.00    +0.000 C 
BRANCH  20  21
ATOM     21  C   UNL     1     -65.854 -50.214 -53.970  0.00  0.00    +0.000 A 
ATOM     22  C   UNL     1     -66.409 -51.489 -53.687  0.00  0.00    +0.000 A 
ATOM     23  C   UNL     1     -65.602 -52.009 -52.705  0.00  0.00    +0.000 A 
ATOM     24  C   UNL     1     -65.614 -53.248 -51.905  0.00  0.00    +0.000 C 
ATOM     25  O   UNL     1     -64.597 -51.132 -52.446  0.00  0.00    +0.000 OA
ATOM     26  N   UNL     1     -64.746 -50.010 -53.241  0.00  0.00    +0.000 NA
ENDBRANCH  20  21
ENDBRANCH  18  20
ENDBRANCH   2  18
TORSDOF 4
