REMARK VINA RESULT:    -6.531     12.426     13.752
REMARK INTER + INTRA:          -9.438
REMARK INTER:                  -8.520
REMARK INTRA:                  -0.918
REMARK UNBOUND:                -0.998
REMARK  Name = 
REMARK  6 active torsions:
REMARK  status: ('A' for Active; 'I' for Inactive)
REMARK    1  A    between atoms: C_1  and  C_2
REMARK    2  A    between atoms: C_4  and  C_5
REMARK    3  A    between atoms: C_5  and  S_6
REMARK    4  A    between atoms: S_6  and  C_8
REMARK    5  A    between atoms: C_20  and  C_21
REMARK    6  A    between atoms: C_21  and  C_23
REMARK                            x       y       z     vdW  Elec       q    Type
REMARK                         _______ _______ _______ _____ _____    ______ ____
ROOT
ATOM      1  C   UNL     1     -55.810 -42.805 -76.989  0.00  0.00    +0.000 A 
ATOM      2  N   UNL     1     -54.492 -43.146 -76.625  0.00  0.00    +0.000 N 
ATOM      3  C   UNL     1     -53.509 -42.136 -76.440  0.00  0.00    +0.000 A 
ATOM      4  C   UNL     1     -52.319 -42.345 -75.718  0.00  0.00    +0.000 A 
ATOM      5 BR   UNL     1     -52.020 -43.963 -74.773  0.00  0.00    +0.000 Br
ATOM      6  C   UNL     1     -51.326 -41.358 -75.654  0.00  0.00    +0.000 A 
ATOM      7  C   UNL     1     -51.528 -40.130 -76.294  0.00  0.00    +0.000 A 
ATOM      8  C   UNL     1     -52.700 -39.898 -77.014  0.00  0.00    +0.000 A 
ATOM      9 CL   UNL     1     -52.885 -38.327 -77.706  0.00  0.00    +0.000 Cl
ATOM     10  C   UNL     1     -53.671 -40.908 -77.101  0.00  0.00    +0.000 A 
ATOM     11  C   UNL     1     -54.900 -40.786 -77.909  0.00  0.00    +0.000 A 
ATOM     12  O   UNL     1     -54.936 -40.111 -78.930  0.00  0.00    +0.000 OA
ATOM     13  C   UNL     1     -56.099 -41.583 -77.488  0.00  0.00    +0.000 A 
ATOM     14  H   UNL     1     -54.465 -43.886 -75.911  0.00  0.00    +0.000 HD
ENDROOT
BRANCH   1  15
ATOM     15  S   UNL     1     -57.038 -43.952 -76.312  0.00  0.00    +0.000 S 
ATOM     16  O   UNL     1     -56.286 -44.719 -75.258  0.00  0.00    +0.000 OA
BRANCH  15  17
ATOM     17  C   UNL     1     -57.534 -45.137 -77.596  0.00  0.00    +0.000 C 
BRANCH  17  21
ATOM     18  C   UNL     1     -56.136 -50.054 -77.888  0.00  0.00    +0.000 C 
ATOM     19  C   UNL     1     -56.354 -48.596 -77.901  0.00  0.00    +0.000 A 
ATOM     20  C   UNL     1     -57.394 -47.770 -77.544  0.00  0.00    +0.000 A 
ATOM     21  C   UNL     1     -56.889 -46.464 -77.729  0.00  0.00    +0.000 A 
ATOM     22  N   UNL     1     -55.644 -46.506 -78.235  0.00  0.00    +0.000 NA
ATOM     23  O   UNL     1     -55.314 -47.841 -78.338  0.00  0.00    +0.000 OA
ENDBRANCH  17  21
ENDBRANCH  15  17
ENDBRANCH   1  15
BRANCH  13  24
ATOM     24  C   UNL     1     -57.376 -40.816 -77.538  0.00  0.00    +0.000 C 
ATOM     25  O   UNL     1     -57.597 -39.927 -76.734  0.00  0.00    +0.000 OA
BRANCH  24  26
ATOM     26  C   UNL     1     -58.346 -41.118 -78.608  0.00  0.00    +0.000 C 
ATOM     27  C   UNL     1     -59.707 -40.470 -78.579  0.00  0.00    +0.000 C 
ATOM     28  C   UNL     1     -59.581 -41.943 -78.334  0.00  0.00    +0.000 C 
ENDBRANCH  24  26
ENDBRANCH  13  24
TORSDOF 5
