REMARK VINA RESULT:    -6.443      2.419      4.024
REMARK INTER + INTRA:          -8.985
REMARK INTER:                  -8.092
REMARK INTRA:                  -0.893
REMARK UNBOUND:                -1.035
REMARK  Name = 
REMARK  6 active torsions:
REMARK  status: ('A' for Active; 'I' for Inactive)
REMARK    1  A    between atoms: C_1  and  C_2
REMARK    2  A    between atoms: C_2  and  C_4
REMARK    3  A    between atoms: C_5  and  S_6
REMARK    4  A    between atoms: S_6  and  C_8
REMARK    5  A    between atoms: C_8  and  C_9
REMARK    6  A    between atoms: C_11  and  C_12
REMARK                            x       y       z     vdW  Elec       q    Type
REMARK                         _______ _______ _______ _____ _____    ______ ____
ROOT
ATOM      1  C   UNL     1     -54.802 -42.868 -62.743  0.00  0.00    +0.000 A 
ATOM      2  C   UNL     1     -54.894 -41.626 -63.272  0.00  0.00    +0.000 A 
ATOM      3  N   UNL     1     -53.849 -41.085 -63.993  0.00  0.00    +0.000 N 
ATOM      4  C   UNL     1     -52.658 -41.761 -64.273  0.00  0.00    +0.000 A 
ATOM      5  C   UNL     1     -51.627 -41.150 -65.007  0.00  0.00    +0.000 A 
ATOM      6 BR   UNL     1     -51.850 -39.412 -65.742  0.00  0.00    +0.000 Br
ATOM      7  C   UNL     1     -50.411 -41.797 -65.225  0.00  0.00    +0.000 A 
ATOM      8  C   UNL     1     -50.201 -43.068 -64.696  0.00  0.00    +0.000 A 
ATOM      9  C   UNL     1     -51.204 -43.698 -63.959  0.00  0.00    +0.000 A 
ATOM     10 CL   UNL     1     -50.796 -45.264 -63.341  0.00  0.00    +0.000 Cl
ATOM     11  C   UNL     1     -52.432 -43.037 -63.753  0.00  0.00    +0.000 A 
ATOM     12  C   UNL     1     -53.553 -43.658 -63.028  0.00  0.00    +0.000 A 
ATOM     13  O   UNL     1     -53.447 -44.835 -62.708  0.00  0.00    +0.000 OA
ATOM     14  H   UNL     1     -54.063 -40.258 -64.534  0.00  0.00    +0.000 HD
ENDROOT
BRANCH   1  16
ATOM     15  C   UNL     1     -55.777 -43.516 -60.458  0.00  0.00    +0.000 C 
ATOM     16  C   UNL     1     -55.873 -43.580 -61.979  0.00  0.00    +0.000 C 
ATOM     17  O   UNL     1     -56.755 -44.177 -62.535  0.00  0.00    +0.000 OA
ENDBRANCH   1  16
BRANCH   2  18
ATOM     18  S   UNL     1     -56.341 -40.516 -63.016  0.00  0.00    +0.000 S 
ATOM     19  O   UNL     1     -55.752 -39.319 -62.321  0.00  0.00    +0.000 OA
BRANCH  18  20
ATOM     20  C   UNL     1     -56.762 -39.947 -64.730  0.00  0.00    +0.000 C 
BRANCH  20  21
ATOM     21  C   UNL     1     -56.990 -41.084 -65.666  0.00  0.00    +0.000 A 
ATOM     22  C   UNL     1     -56.143 -41.585 -66.684  0.00  0.00    +0.000 A 
ATOM     23  C   UNL     1     -56.875 -42.587 -67.269  0.00  0.00    +0.000 A 
ATOM     24  C   UNL     1     -56.641 -43.500 -68.398  0.00  0.00    +0.000 C 
ATOM     25  O   UNL     1     -58.068 -42.708 -66.632  0.00  0.00    +0.000 OA
ATOM     26  N   UNL     1     -58.136 -41.784 -65.607  0.00  0.00    +0.000 NA
ENDBRANCH  20  21
ENDBRANCH  18  20
ENDBRANCH   2  18
TORSDOF 4
