REMARK VINA RESULT:    -6.632      3.401      5.802
REMARK INTER + INTRA:          -9.480
REMARK INTER:                  -8.391
REMARK INTRA:                  -1.090
REMARK UNBOUND:                -0.910
REMARK  Name = 
REMARK  6 active torsions:
REMARK  status: ('A' for Active; 'I' for Inactive)
REMARK    1  A    between atoms: C_1  and  C_2
REMARK    2  A    between atoms: C_4  and  C_5
REMARK    3  A    between atoms: C_5  and  S_6
REMARK    4  A    between atoms: S_6  and  C_8
REMARK    5  A    between atoms: C_20  and  C_21
REMARK    6  A    between atoms: C_21  and  C_23
REMARK                            x       y       z     vdW  Elec       q    Type
REMARK                         _______ _______ _______ _____ _____    ______ ____
ROOT
ATOM      1  C   UNL     1     -55.969 -41.835 -77.326  0.00  0.00    +0.000 A 
ATOM      2  N   UNL     1     -55.056 -40.782 -77.120  0.00  0.00    +0.000 N 
ATOM      3  C   UNL     1     -53.730 -41.050 -76.683  0.00  0.00    +0.000 A 
ATOM      4  C   UNL     1     -52.673 -40.131 -76.829  0.00  0.00    +0.000 A 
ATOM      5 BR   UNL     1     -52.907 -38.515 -77.795  0.00  0.00    +0.000 Br
ATOM      6  C   UNL     1     -51.407 -40.390 -76.286  0.00  0.00    +0.000 A 
ATOM      7  C   UNL     1     -51.176 -41.594 -75.610  0.00  0.00    +0.000 A 
ATOM      8  C   UNL     1     -52.207 -42.520 -75.455  0.00  0.00    +0.000 A 
ATOM      9 CL   UNL     1     -51.802 -44.004 -74.669  0.00  0.00    +0.000 Cl
ATOM     10  C   UNL     1     -53.480 -42.234 -75.972  0.00  0.00    +0.000 A 
ATOM     11  C   UNL     1     -54.651 -43.112 -75.783  0.00  0.00    +0.000 A 
ATOM     12  O   UNL     1     -54.775 -43.816 -74.788  0.00  0.00    +0.000 OA
ATOM     13  C   UNL     1     -55.739 -43.064 -76.813  0.00  0.00    +0.000 A 
ATOM     14  H   UNL     1     -55.113 -40.068 -77.859  0.00  0.00    +0.000 HD
ENDROOT
BRANCH   1  15
ATOM     15  S   UNL     1     -57.151 -41.483 -78.653  0.00  0.00    +0.000 S 
ATOM     16  O   UNL     1     -58.352 -42.322 -78.311  0.00  0.00    +0.000 OA
BRANCH  15  17
ATOM     17  C   UNL     1     -56.491 -42.096 -80.231  0.00  0.00    +0.000 C 
BRANCH  17  21
ATOM     18  C   UNL     1     -51.454 -42.587 -81.012  0.00  0.00    +0.000 C 
ATOM     19  C   UNL     1     -52.896 -42.289 -80.931  0.00  0.00    +0.000 A 
ATOM     20  C   UNL     1     -53.966 -42.857 -80.281  0.00  0.00    +0.000 A 
ATOM     21  C   UNL     1     -55.052 -42.000 -80.568  0.00  0.00    +0.000 A 
ATOM     22  N   UNL     1     -54.668 -41.015 -81.400  0.00  0.00    +0.000 NA
ATOM     23  O   UNL     1     -53.319 -41.200 -81.622  0.00  0.00    +0.000 OA
ENDBRANCH  17  21
ENDBRANCH  15  17
ENDBRANCH   1  15
BRANCH  13  24
ATOM     24  C   UNL     1     -56.250 -44.408 -77.208  0.00  0.00    +0.000 C 
ATOM     25  O   UNL     1     -57.392 -44.739 -76.943  0.00  0.00    +0.000 OA
BRANCH  24  26
ATOM     26  C   UNL     1     -55.364 -45.311 -77.968  0.00  0.00    +0.000 C 
ATOM     27  C   UNL     1     -55.861 -46.677 -78.364  0.00  0.00    +0.000 C 
ATOM     28  C   UNL     1     -54.781 -46.551 -77.334  0.00  0.00    +0.000 C 
ENDBRANCH  24  26
ENDBRANCH  13  24
TORSDOF 5
