REMARK VINA RESULT:    -7.308      8.665     12.718
REMARK INTER + INTRA:         -10.144
REMARK INTER:                  -9.174
REMARK INTRA:                  -0.970
REMARK UNBOUND:                -0.699
REMARK  Name = 
REMARK  8 active torsions:
REMARK  status: ('A' for Active; 'I' for Inactive)
REMARK    1  A    between atoms: C_1  and  C_2
REMARK    2  A    between atoms: C_4  and  C_5
REMARK    3  A    between atoms: C_5  and  S_6
REMARK    4  A    between atoms: S_6  and  C_8
REMARK    5  A    between atoms: C_20  and  C_21
REMARK    6  A    between atoms: C_21  and  C_23
REMARK    7  A    between atoms: C_23  and  C_24
REMARK    8  A    between atoms: C_23  and  C_25
REMARK                            x       y       z     vdW  Elec       q    Type
REMARK                         _______ _______ _______ _____ _____    ______ ____
ROOT
ATOM      1  C   UNL     1     -55.922 -42.579 -76.523  0.00  0.00    +0.000 A 
ATOM      2  N   UNL     1     -54.618 -43.015 -76.311  0.00  0.00    +0.000 N 
ATOM      3  C   UNL     1     -53.539 -42.113 -76.238  0.00  0.00    +0.000 A 
ATOM      4  C   UNL     1     -52.318 -42.453 -75.626  0.00  0.00    +0.000 A 
ATOM      5 BR   UNL     1     -52.110 -44.103 -74.714  0.00  0.00    +0.000 Br
ATOM      6  C   UNL     1     -51.237 -41.566 -75.636  0.00  0.00    +0.000 A 
ATOM      7  C   UNL     1     -51.363 -40.325 -76.254  0.00  0.00    +0.000 A 
ATOM      8  C   UNL     1     -52.577 -39.963 -76.865  0.00  0.00    +0.000 A 
ATOM      9 CL   UNL     1     -52.636 -38.373 -77.535  0.00  0.00    +0.000 Cl
ATOM     10  C   UNL     1     -53.665 -40.860 -76.861  0.00  0.00    +0.000 A 
ATOM     11  C   UNL     1     -54.975 -40.586 -77.505  0.00  0.00    +0.000 A 
ATOM     12  O   UNL     1     -55.051 -39.776 -78.424  0.00  0.00    +0.000 OA
ATOM     13  C   UNL     1     -56.203 -41.347 -77.013  0.00  0.00    +0.000 A 
ATOM     14  H   UNL     1     -54.550 -43.850 -75.712  0.00  0.00    +0.000 HD
ENDROOT
BRANCH   1  15
ATOM     15  S   UNL     1     -57.146 -43.772 -75.864  0.00  0.00    +0.000 S 
ATOM     16  O   UNL     1     -58.041 -44.056 -77.040  0.00  0.00    +0.000 OA
BRANCH  15  17
ATOM     17  C   UNL     1     -58.083 -42.783 -74.650  0.00  0.00    +0.000 C 
BRANCH  17  21
ATOM     18  C   UNL     1     -55.921 -40.505 -70.534  0.00  0.00    +0.000 C 
ATOM     19  C   UNL     1     -56.379 -41.287 -71.704  0.00  0.00    +0.000 A 
ATOM     20  C   UNL     1     -57.510 -41.296 -72.488  0.00  0.00    +0.000 A 
ATOM     21  C   UNL     1     -57.270 -42.298 -73.473  0.00  0.00    +0.000 A 
ATOM     22  N   UNL     1     -56.068 -42.862 -73.265  0.00  0.00    +0.000 NA
ATOM     23  O   UNL     1     -55.517 -42.229 -72.167  0.00  0.00    +0.000 OA
ENDBRANCH  17  21
ENDBRANCH  15  17
ENDBRANCH   1  15
BRANCH  13  24
ATOM     24  C   UNL     1     -57.530 -40.626 -77.099  0.00  0.00    +0.000 C 
ATOM     25  O   UNL     1     -57.794 -39.720 -76.309  0.00  0.00    +0.000 OA
BRANCH  24  26
ATOM     26  C   UNL     1     -58.579 -41.058 -78.123  0.00  0.00    +0.000 C 
ATOM     27  C   UNL     1     -59.625 -39.971 -78.355  0.00  0.00    +0.000 C 
ATOM     28  C   UNL     1     -57.944 -41.477 -79.452  0.00  0.00    +0.000 C 
ENDBRANCH  24  26
ENDBRANCH  13  24
TORSDOF 5
