REMARK VINA RESULT:    -5.689      3.181      5.678
REMARK INTER + INTRA:          -8.272
REMARK INTER:                  -7.478
REMARK INTRA:                  -0.793
REMARK UNBOUND:                -0.920
REMARK  Name = 
REMARK  8 active torsions:
REMARK  status: ('A' for Active; 'I' for Inactive)
REMARK    1  A    between atoms: C_1  and  C_2
REMARK    2  A    between atoms: C_4  and  C_5
REMARK    3  A    between atoms: C_5  and  S_6
REMARK    4  A    between atoms: S_6  and  C_8
REMARK    5  A    between atoms: C_20  and  C_21
REMARK    6  A    between atoms: C_21  and  C_23
REMARK    7  A    between atoms: C_23  and  C_24
REMARK    8  A    between atoms: C_23  and  C_25
REMARK                            x       y       z     vdW  Elec       q    Type
REMARK                         _______ _______ _______ _____ _____    ______ ____
ROOT
ATOM      1  C   UNL     1     -55.424 -41.189 -77.863  0.00  0.00    +0.000 A 
ATOM      2  N   UNL     1     -56.212 -41.977 -78.695  0.00  0.00    +0.000 N 
ATOM      3  C   UNL     1     -55.811 -42.296 -80.007  0.00  0.00    +0.000 A 
ATOM      4  C   UNL     1     -56.347 -43.392 -80.709  0.00  0.00    +0.000 A 
ATOM      5 BR   UNL     1     -57.531 -44.608 -79.862  0.00  0.00    +0.000 Br
ATOM      6  C   UNL     1     -55.989 -43.640 -82.037  0.00  0.00    +0.000 A 
ATOM      7  C   UNL     1     -55.087 -42.799 -82.682  0.00  0.00    +0.000 A 
ATOM      8  C   UNL     1     -54.534 -41.703 -81.996  0.00  0.00    +0.000 A 
ATOM      9 CL   UNL     1     -53.373 -40.775 -82.876  0.00  0.00    +0.000 Cl
ATOM     10  C   UNL     1     -54.900 -41.448 -80.658  0.00  0.00    +0.000 A 
ATOM     11  C   UNL     1     -54.399 -40.301 -79.860  0.00  0.00    +0.000 A 
ATOM     12  O   UNL     1     -53.990 -39.290 -80.424  0.00  0.00    +0.000 OA
ATOM     13  C   UNL     1     -54.427 -40.404 -78.337  0.00  0.00    +0.000 A 
ATOM     14  H   UNL     1     -56.749 -42.701 -78.199  0.00  0.00    +0.000 HD
ENDROOT
BRANCH   1  15
ATOM     15  S   UNL     1     -55.768 -41.527 -76.095  0.00  0.00    +0.000 S 
ATOM     16  O   UNL     1     -56.004 -43.012 -76.052  0.00  0.00    +0.000 OA
BRANCH  15  17
ATOM     17  C   UNL     1     -57.359 -40.680 -75.808  0.00  0.00    +0.000 C 
BRANCH  17  21
ATOM     18  C   UNL     1     -60.830 -40.479 -79.644  0.00  0.00    +0.000 C 
ATOM     19  C   UNL     1     -59.867 -40.742 -78.552  0.00  0.00    +0.000 A 
ATOM     20  C   UNL     1     -58.969 -39.979 -77.841  0.00  0.00    +0.000 A 
ATOM     21  C   UNL     1     -58.381 -40.877 -76.903  0.00  0.00    +0.000 A 
ATOM     22  N   UNL     1     -58.893 -42.108 -77.069  0.00  0.00    +0.000 NA
ATOM     23  O   UNL     1     -59.818 -42.018 -78.092  0.00  0.00    +0.000 OA
ENDBRANCH  17  21
ENDBRANCH  15  17
ENDBRANCH   1  15
BRANCH  13  24
ATOM     24  C   UNL     1     -53.341 -39.667 -77.586  0.00  0.00    +0.000 C 
ATOM     25  O   UNL     1     -53.292 -38.438 -77.617  0.00  0.00    +0.000 OA
BRANCH  24  26
ATOM     26  C   UNL     1     -52.257 -40.442 -76.836  0.00  0.00    +0.000 C 
ATOM     27  C   UNL     1     -51.592 -41.489 -77.726  0.00  0.00    +0.000 C 
ATOM     28  C   UNL     1     -51.203 -39.512 -76.232  0.00  0.00    +0.000 C 
ENDBRANCH  24  26
ENDBRANCH  13  24
TORSDOF 5
