REMARK VINA RESULT:    -5.458     15.394     16.628
REMARK INTER + INTRA:          -7.404
REMARK INTER:                  -6.429
REMARK INTRA:                  -0.974
REMARK UNBOUND:                -0.670
REMARK  Name = 
REMARK  6 active torsions:
REMARK  status: ('A' for Active; 'I' for Inactive)
REMARK    1  A    between atoms: C_1  and  C_2
REMARK    2  A    between atoms: C_2  and  C_4
REMARK    3  A    between atoms: C_5  and  S_6
REMARK    4  A    between atoms: S_6  and  C_8
REMARK    5  A    between atoms: C_8  and  C_9
REMARK    6  A    between atoms: C_11  and  C_12
REMARK                            x       y       z     vdW  Elec       q    Type
REMARK                         _______ _______ _______ _____ _____    ______ ____
ROOT
ATOM      1  C   UNL     1     -56.002 -42.309 -63.218  0.00  0.00    +0.000 A 
ATOM      2  C   UNL     1     -56.791 -41.559 -62.416  0.00  0.00    +0.000 A 
ATOM      3  N   UNL     1     -56.743 -41.618 -61.036  0.00  0.00    +0.000 N 
ATOM      4  C   UNL     1     -55.966 -42.558 -60.339  0.00  0.00    +0.000 A 
ATOM      5  C   UNL     1     -55.969 -42.600 -58.932  0.00  0.00    +0.000 A 
ATOM      6 BR   UNL     1     -57.090 -41.444 -57.924  0.00  0.00    +0.000 Br
ATOM      7  C   UNL     1     -55.155 -43.492 -58.235  0.00  0.00    +0.000 A 
ATOM      8  C   UNL     1     -54.318 -44.350 -58.940  0.00  0.00    +0.000 A 
ATOM      9  C   UNL     1     -54.281 -44.317 -60.342  0.00  0.00    +0.000 A 
ATOM     10 CL   UNL     1     -53.186 -45.443 -61.067  0.00  0.00    +0.000 Cl
ATOM     11  C   UNL     1     -55.092 -43.407 -61.044  0.00  0.00    +0.000 A 
ATOM     12  C   UNL     1     -55.114 -43.311 -62.529  0.00  0.00    +0.000 A 
ATOM     13  O   UNL     1     -54.443 -44.086 -63.197  0.00  0.00    +0.000 OA
ATOM     14  H   UNL     1     -57.576 -41.282 -60.547  0.00  0.00    +0.000 HD
ENDROOT
BRANCH   1  16
ATOM     15  C   UNL     1     -55.078 -41.240 -65.406  0.00  0.00    +0.000 C 
ATOM     16  C   UNL     1     -55.989 -42.238 -64.724  0.00  0.00    +0.000 C 
ATOM     17  O   UNL     1     -56.715 -42.954 -65.414  0.00  0.00    +0.000 OA
ENDBRANCH   1  16
BRANCH   2  18
ATOM     18  S   UNL     1     -58.127 -40.521 -63.109  0.00  0.00    +0.000 S 
ATOM     19  O   UNL     1     -59.079 -41.526 -63.703  0.00  0.00    +0.000 OA
BRANCH  18  20
ATOM     20  C   UNL     1     -58.906 -39.939 -61.562  0.00  0.00    +0.000 C 
BRANCH  20  21
ATOM     21  C   UNL     1     -60.121 -40.727 -61.185  0.00  0.00    +0.000 A 
ATOM     22  C   UNL     1     -61.485 -40.548 -61.542  0.00  0.00    +0.000 A 
ATOM     23  C   UNL     1     -62.140 -41.605 -60.961  0.00  0.00    +0.000 A 
ATOM     24  C   UNL     1     -63.548 -42.050 -60.912  0.00  0.00    +0.000 C 
ATOM     25  O   UNL     1     -61.239 -42.382 -60.310  0.00  0.00    +0.000 OA
ATOM     26  N   UNL     1     -59.974 -41.841 -60.451  0.00  0.00    +0.000 NA
ENDBRANCH  20  21
ENDBRANCH  18  20
ENDBRANCH   2  18
TORSDOF 4
