REMARK VINA RESULT:    -5.163      2.274      3.026
REMARK INTER + INTRA:          -7.300
REMARK INTER:                  -6.433
REMARK INTRA:                  -0.866
REMARK UNBOUND:                -0.930
REMARK  Name = 
REMARK  6 active torsions:
REMARK  status: ('A' for Active; 'I' for Inactive)
REMARK    1  A    between atoms: C_1  and  C_2
REMARK    2  A    between atoms: C_2  and  C_4
REMARK    3  A    between atoms: C_5  and  S_6
REMARK    4  A    between atoms: S_6  and  C_8
REMARK    5  A    between atoms: C_8  and  C_9
REMARK    6  A    between atoms: C_11  and  C_12
REMARK                            x       y       z     vdW  Elec       q    Type
REMARK                         _______ _______ _______ _____ _____    ______ ____
ROOT
ATOM      1  C   UNL     1     -58.040 -39.142 -62.348  0.00  0.00    +0.000 A 
ATOM      2  C   UNL     1     -57.119 -38.243 -62.766  0.00  0.00    +0.000 A 
ATOM      3  N   UNL     1     -56.012 -38.581 -63.526  0.00  0.00    +0.000 N 
ATOM      4  C   UNL     1     -55.598 -39.921 -63.657  0.00  0.00    +0.000 A 
ATOM      5  C   UNL     1     -54.342 -40.243 -64.196  0.00  0.00    +0.000 A 
ATOM      6 BR   UNL     1     -53.128 -38.882 -64.724  0.00  0.00    +0.000 Br
ATOM      7  C   UNL     1     -53.950 -41.571 -64.342  0.00  0.00    +0.000 A 
ATOM      8  C   UNL     1     -54.816 -42.594 -63.952  0.00  0.00    +0.000 A 
ATOM      9  C   UNL     1     -56.089 -42.294 -63.443  0.00  0.00    +0.000 A 
ATOM     10 CL   UNL     1     -57.042 -43.636 -62.931  0.00  0.00    +0.000 Cl
ATOM     11  C   UNL     1     -56.490 -40.954 -63.325  0.00  0.00    +0.000 A 
ATOM     12  C   UNL     1     -57.845 -40.535 -62.872  0.00  0.00    +0.000 A 
ATOM     13  O   UNL     1     -58.802 -41.296 -62.961  0.00  0.00    +0.000 OA
ATOM     14  H   UNL     1     -55.237 -37.916 -63.447  0.00  0.00    +0.000 HD
ENDROOT
BRANCH   1  16
ATOM     15  C   UNL     1     -60.502 -38.352 -62.049  0.00  0.00    +0.000 C 
ATOM     16  C   UNL     1     -59.200 -38.845 -61.448  0.00  0.00    +0.000 C 
ATOM     17  O   UNL     1     -59.114 -39.004 -60.231  0.00  0.00    +0.000 OA
ENDBRANCH   1  16
BRANCH   2  18
ATOM     18  S   UNL     1     -57.166 -36.500 -62.229  0.00  0.00    +0.000 S 
ATOM     19  O   UNL     1     -56.548 -36.547 -60.857  0.00  0.00    +0.000 OA
BRANCH  18  20
ATOM     20  C   UNL     1     -55.865 -35.867 -63.355  0.00  0.00    +0.000 C 
BRANCH  20  21
ATOM     21  C   UNL     1     -54.694 -35.251 -62.662  0.00  0.00    +0.000 A 
ATOM     22  C   UNL     1     -54.529 -33.972 -62.071  0.00  0.00    +0.000 A 
ATOM     23  C   UNL     1     -53.278 -34.004 -61.506  0.00  0.00    +0.000 A 
ATOM     24  C   UNL     1     -52.453 -33.052 -60.740  0.00  0.00    +0.000 C 
ATOM     25  O   UNL     1     -52.726 -35.227 -61.728  0.00  0.00    +0.000 OA
ATOM     26  N   UNL     1     -53.608 -36.010 -62.442  0.00  0.00    +0.000 NA
ENDBRANCH  20  21
ENDBRANCH  18  20
ENDBRANCH   2  18
TORSDOF 4
