REMARK VINA RESULT:    -6.479     14.460     17.006
REMARK INTER + INTRA:          -9.529
REMARK INTER:                  -8.375
REMARK INTRA:                  -1.154
REMARK UNBOUND:                -1.155
REMARK  Name = 
REMARK  6 active torsions:
REMARK  status: ('A' for Active; 'I' for Inactive)
REMARK    1  A    between atoms: C_1  and  C_2
REMARK    2  A    between atoms: C_4  and  C_5
REMARK    3  A    between atoms: C_5  and  S_6
REMARK    4  A    between atoms: S_6  and  C_8
REMARK    5  A    between atoms: C_20  and  C_21
REMARK    6  A    between atoms: C_21  and  C_23
REMARK                            x       y       z     vdW  Elec       q    Type
REMARK                         _______ _______ _______ _____ _____    ______ ____
ROOT
ATOM      1  C   UNL     1     -56.033 -41.766 -77.349  0.00  0.00    +0.000 A 
ATOM      2  N   UNL     1     -55.113 -40.717 -77.159  0.00  0.00    +0.000 N 
ATOM      3  C   UNL     1     -53.785 -40.988 -76.728  0.00  0.00    +0.000 A 
ATOM      4  C   UNL     1     -52.725 -40.077 -76.889  0.00  0.00    +0.000 A 
ATOM      5 BR   UNL     1     -52.955 -38.469 -77.869  0.00  0.00    +0.000 Br
ATOM      6  C   UNL     1     -51.456 -40.338 -76.351  0.00  0.00    +0.000 A 
ATOM      7  C   UNL     1     -51.229 -41.537 -75.665  0.00  0.00    +0.000 A 
ATOM      8  C   UNL     1     -52.264 -42.456 -75.495  0.00  0.00    +0.000 A 
ATOM      9 CL   UNL     1     -51.863 -43.934 -74.698  0.00  0.00    +0.000 Cl
ATOM     10  C   UNL     1     -53.538 -42.166 -76.007  0.00  0.00    +0.000 A 
ATOM     11  C   UNL     1     -54.713 -43.036 -75.802  0.00  0.00    +0.000 A 
ATOM     12  O   UNL     1     -54.835 -43.729 -74.800  0.00  0.00    +0.000 OA
ATOM     13  C   UNL     1     -55.808 -42.991 -76.827  0.00  0.00    +0.000 A 
ATOM     14  H   UNL     1     -55.170 -40.009 -77.905  0.00  0.00    +0.000 HD
ENDROOT
BRANCH   1  15
ATOM     15  S   UNL     1     -57.221 -41.419 -78.673  0.00  0.00    +0.000 S 
ATOM     16  O   UNL     1     -58.444 -42.207 -78.288  0.00  0.00    +0.000 OA
BRANCH  15  17
ATOM     17  C   UNL     1     -56.603 -42.105 -80.238  0.00  0.00    +0.000 C 
BRANCH  17  21
ATOM     18  C   UNL     1     -51.594 -42.587 -81.183  0.00  0.00    +0.000 C 
ATOM     19  C   UNL     1     -53.034 -42.294 -81.058  0.00  0.00    +0.000 A 
ATOM     20  C   UNL     1     -54.078 -42.855 -80.361  0.00  0.00    +0.000 A 
ATOM     21  C   UNL     1     -55.177 -42.008 -80.626  0.00  0.00    +0.000 A 
ATOM     22  N   UNL     1     -54.828 -41.038 -81.488  0.00  0.00    +0.000 NA
ATOM     23  O   UNL     1     -53.487 -41.220 -81.753  0.00  0.00    +0.000 OA
ENDBRANCH  17  21
ENDBRANCH  15  17
ENDBRANCH   1  15
BRANCH  13  24
ATOM     24  C   UNL     1     -56.329 -44.336 -77.206  0.00  0.00    +0.000 C 
ATOM     25  O   UNL     1     -57.463 -44.667 -76.907  0.00  0.00    +0.000 OA
BRANCH  24  26
ATOM     26  C   UNL     1     -55.465 -45.238 -77.990  0.00  0.00    +0.000 C 
ATOM     27  C   UNL     1     -55.871 -46.678 -78.174  0.00  0.00    +0.000 C 
ATOM     28  C   UNL     1     -54.682 -46.345 -77.325  0.00  0.00    +0.000 C 
ENDBRANCH  24  26
ENDBRANCH  13  24
TORSDOF 5
