REMARK VINA RESULT:    -5.076     16.127     17.701
REMARK INTER + INTRA:          -7.022
REMARK INTER:                  -6.341
REMARK INTRA:                  -0.681
REMARK UNBOUND:                -0.760
REMARK  Name = 
REMARK  6 active torsions:
REMARK  status: ('A' for Active; 'I' for Inactive)
REMARK    1  A    between atoms: C_1  and  C_2
REMARK    2  A    between atoms: C_2  and  C_4
REMARK    3  A    between atoms: C_5  and  S_6
REMARK    4  A    between atoms: S_6  and  C_8
REMARK    5  A    between atoms: C_8  and  C_9
REMARK    6  A    between atoms: C_11  and  C_12
REMARK                            x       y       z     vdW  Elec       q    Type
REMARK                         _______ _______ _______ _____ _____    ______ ____
ROOT
ATOM      1  C   UNL     1     -68.423 -50.909 -55.324  0.00  0.00    +0.000 A 
ATOM      2  C   UNL     1     -68.034 -49.749 -55.909  0.00  0.00    +0.000 A 
ATOM      3  N   UNL     1     -66.860 -49.099 -55.589  0.00  0.00    +0.000 N 
ATOM      4  C   UNL     1     -65.999 -49.529 -54.568  0.00  0.00    +0.000 A 
ATOM      5  C   UNL     1     -64.780 -48.867 -54.327  0.00  0.00    +0.000 A 
ATOM      6 BR   UNL     1     -64.277 -47.343 -55.344  0.00  0.00    +0.000 Br
ATOM      7  C   UNL     1     -63.897 -49.320 -53.349  0.00  0.00    +0.000 A 
ATOM      8  C   UNL     1     -64.227 -50.441 -52.591  0.00  0.00    +0.000 A 
ATOM      9  C   UNL     1     -65.424 -51.130 -52.829  0.00  0.00    +0.000 A 
ATOM     10 CL   UNL     1     -65.696 -52.497 -51.804  0.00  0.00    +0.000 Cl
ATOM     11  C   UNL     1     -66.299 -50.695 -53.842  0.00  0.00    +0.000 A 
ATOM     12  C   UNL     1     -67.560 -51.401 -54.192  0.00  0.00    +0.000 A 
ATOM     13  O   UNL     1     -67.927 -52.368 -53.536  0.00  0.00    +0.000 OA
ATOM     14  H   UNL     1     -66.821 -48.106 -55.819  0.00  0.00    +0.000 HD
ENDROOT
BRANCH   1  16
ATOM     15  C   UNL     1     -70.908 -51.502 -54.889  0.00  0.00    +0.000 C 
ATOM     16  C   UNL     1     -69.648 -51.694 -55.702  0.00  0.00    +0.000 C 
ATOM     17  O   UNL     1     -69.639 -52.509 -56.628  0.00  0.00    +0.000 OA
ENDBRANCH   1  16
BRANCH   2  18
ATOM     18  S   UNL     1     -69.120 -48.877 -57.087  0.00  0.00    +0.000 S 
ATOM     19  O   UNL     1     -70.135 -48.210 -56.199  0.00  0.00    +0.000 OA
BRANCH  18  20
ATOM     20  C   UNL     1     -67.970 -47.557 -57.616  0.00  0.00    +0.000 C 
BRANCH  20  21
ATOM     21  C   UNL     1     -68.327 -47.015 -58.958  0.00  0.00    +0.000 A 
ATOM     22  C   UNL     1     -69.514 -47.206 -59.710  0.00  0.00    +0.000 A 
ATOM     23  C   UNL     1     -69.354 -46.410 -60.819  0.00  0.00    +0.000 A 
ATOM     24  C   UNL     1     -70.181 -46.104 -62.000  0.00  0.00    +0.000 C 
ATOM     25  O   UNL     1     -68.148 -45.785 -60.744  0.00  0.00    +0.000 OA
ATOM     26  N   UNL     1     -67.504 -46.157 -59.577  0.00  0.00    +0.000 NA
ENDBRANCH  20  21
ENDBRANCH  18  20
ENDBRANCH   2  18
TORSDOF 4
