REMARK VINA RESULT:    -6.079      3.911      6.363
REMARK INTER + INTRA:          -8.145
REMARK INTER:                  -7.345
REMARK INTRA:                  -0.800
REMARK UNBOUND:                -0.644
REMARK  Name = 
REMARK  6 active torsions:
REMARK  status: ('A' for Active; 'I' for Inactive)
REMARK    1  A    between atoms: C_1  and  C_2
REMARK    2  A    between atoms: C_2  and  C_4
REMARK    3  A    between atoms: C_5  and  S_6
REMARK    4  A    between atoms: S_6  and  C_8
REMARK    5  A    between atoms: C_8  and  C_9
REMARK    6  A    between atoms: C_11  and  C_12
REMARK                            x       y       z     vdW  Elec       q    Type
REMARK                         _______ _______ _______ _____ _____    ______ ____
ROOT
ATOM      1  C   UNL     1     -55.268 -44.042 -77.523  0.00  0.00    +0.000 A 
ATOM      2  C   UNL     1     -55.536 -42.901 -78.198  0.00  0.00    +0.000 A 
ATOM      3  N   UNL     1     -54.734 -41.779 -78.140  0.00  0.00    +0.000 N 
ATOM      4  C   UNL     1     -53.648 -41.662 -77.256  0.00  0.00    +0.000 A 
ATOM      5  C   UNL     1     -52.874 -40.487 -77.214  0.00  0.00    +0.000 A 
ATOM      6 BR   UNL     1     -53.302 -38.993 -78.306  0.00  0.00    +0.000 Br
ATOM      7  C   UNL     1     -51.770 -40.382 -76.374  0.00  0.00    +0.000 A 
ATOM      8  C   UNL     1     -51.418 -41.464 -75.566  0.00  0.00    +0.000 A 
ATOM      9  C   UNL     1     -52.158 -42.651 -75.604  0.00  0.00    +0.000 A 
ATOM     10 CL   UNL     1     -51.610 -43.890 -74.528  0.00  0.00    +0.000 Cl
ATOM     11  C   UNL     1     -53.262 -42.764 -76.473  0.00  0.00    +0.000 A 
ATOM     12  C   UNL     1     -54.077 -44.003 -76.601  0.00  0.00    +0.000 A 
ATOM     13  O   UNL     1     -53.799 -44.985 -75.926  0.00  0.00    +0.000 OA
ATOM     14  H   UNL     1     -55.190 -40.899 -78.391  0.00  0.00    +0.000 HD
ENDROOT
BRANCH   1  16
ATOM     15  C   UNL     1     -55.708 -46.373 -78.599  0.00  0.00    +0.000 C 
ATOM     16  C   UNL     1     -56.096 -45.300 -77.606  0.00  0.00    +0.000 C 
ATOM     17  O   UNL     1     -57.088 -45.469 -76.896  0.00  0.00    +0.000 OA
ENDBRANCH   1  16
BRANCH   2  18
ATOM     18  S   UNL     1     -57.093 -42.685 -79.124  0.00  0.00    +0.000 S 
ATOM     19  O   UNL     1     -57.330 -41.199 -79.061  0.00  0.00    +0.000 OA
BRANCH  18  20
ATOM     20  C   UNL     1     -56.485 -43.023 -80.817  0.00  0.00    +0.000 C 
BRANCH  20  21
ATOM     21  C   UNL     1     -55.052 -42.635 -80.963  0.00  0.00    +0.000 A 
ATOM     22  C   UNL     1     -53.910 -43.465 -81.118  0.00  0.00    +0.000 A 
ATOM     23  C   UNL     1     -52.859 -42.589 -81.241  0.00  0.00    +0.000 A 
ATOM     24  C   UNL     1     -51.402 -42.737 -81.410  0.00  0.00    +0.000 C 
ATOM     25  O   UNL     1     -53.334 -41.316 -81.183  0.00  0.00    +0.000 OA
ATOM     26  N   UNL     1     -54.709 -41.340 -81.019  0.00  0.00    +0.000 NA
ENDBRANCH  20  21
ENDBRANCH  18  20
ENDBRANCH   2  18
TORSDOF 4
