REMARK VINA RESULT:    -5.235      3.738      5.699
REMARK INTER + INTRA:          -7.685
REMARK INTER:                  -6.800
REMARK INTRA:                  -0.886
REMARK UNBOUND:                -0.920
REMARK  Name = 
REMARK  8 active torsions:
REMARK  status: ('A' for Active; 'I' for Inactive)
REMARK    1  A    between atoms: C_1  and  C_2
REMARK    2  A    between atoms: C_4  and  C_5
REMARK    3  A    between atoms: C_5  and  S_6
REMARK    4  A    between atoms: S_6  and  C_8
REMARK    5  A    between atoms: C_20  and  C_21
REMARK    6  A    between atoms: C_21  and  C_23
REMARK    7  A    between atoms: C_23  and  C_24
REMARK    8  A    between atoms: C_23  and  C_25
REMARK                            x       y       z     vdW  Elec       q    Type
REMARK                         _______ _______ _______ _____ _____    ______ ____
ROOT
ATOM      1  C   UNL     1     -56.335 -43.423 -77.725  0.00  0.00    +0.000 A 
ATOM      2  N   UNL     1     -56.314 -43.333 -79.113  0.00  0.00    +0.000 N 
ATOM      3  C   UNL     1     -55.529 -42.372 -79.780  0.00  0.00    +0.000 A 
ATOM      4  C   UNL     1     -55.160 -42.512 -81.131  0.00  0.00    +0.000 A 
ATOM      5 BR   UNL     1     -55.566 -44.094 -82.094  0.00  0.00    +0.000 Br
ATOM      6  C   UNL     1     -54.447 -41.506 -81.789  0.00  0.00    +0.000 A 
ATOM      7  C   UNL     1     -54.088 -40.348 -81.105  0.00  0.00    +0.000 A 
ATOM      8  C   UNL     1     -54.440 -40.191 -79.752  0.00  0.00    +0.000 A 
ATOM      9 CL   UNL     1     -53.879 -38.747 -78.992  0.00  0.00    +0.000 Cl
ATOM     10  C   UNL     1     -55.166 -41.203 -79.090  0.00  0.00    +0.000 A 
ATOM     11  C   UNL     1     -55.614 -41.120 -77.676  0.00  0.00    +0.000 A 
ATOM     12  O   UNL     1     -55.758 -40.025 -77.140  0.00  0.00    +0.000 OA
ATOM     13  C   UNL     1     -55.907 -42.417 -76.927  0.00  0.00    +0.000 A 
ATOM     14  H   UNL     1     -56.423 -44.238 -79.592  0.00  0.00    +0.000 HD
ENDROOT
BRANCH   1  15
ATOM     15  S   UNL     1     -56.794 -45.108 -77.168  0.00  0.00    +0.000 S 
ATOM     16  O   UNL     1     -55.469 -45.779 -76.927  0.00  0.00    +0.000 OA
BRANCH  15  17
ATOM     17  C   UNL     1     -57.554 -45.848 -78.653  0.00  0.00    +0.000 C 
BRANCH  17  21
ATOM     18  C   UNL     1     -62.570 -47.091 -78.963  0.00  0.00    +0.000 C 
ATOM     19  C   UNL     1     -61.195 -46.594 -78.735  0.00  0.00    +0.000 A 
ATOM     20  C   UNL     1     -59.939 -46.984 -79.138  0.00  0.00    +0.000 A 
ATOM     21  C   UNL     1     -59.052 -46.025 -78.570  0.00  0.00    +0.000 A 
ATOM     22  N   UNL     1     -59.751 -45.129 -77.851  0.00  0.00    +0.000 NA
ATOM     23  O   UNL     1     -61.082 -45.485 -77.960  0.00  0.00    +0.000 OA
ENDBRANCH  17  21
ENDBRANCH  15  17
ENDBRANCH   1  15
BRANCH  13  24
ATOM     24  C   UNL     1     -55.648 -42.414 -75.437  0.00  0.00    +0.000 C 
ATOM     25  O   UNL     1     -54.602 -42.883 -74.990  0.00  0.00    +0.000 OA
BRANCH  24  26
ATOM     26  C   UNL     1     -56.709 -41.889 -74.469  0.00  0.00    +0.000 C 
ATOM     27  C   UNL     1     -58.094 -42.444 -74.792  0.00  0.00    +0.000 C 
ATOM     28  C   UNL     1     -56.347 -42.181 -73.010  0.00  0.00    +0.000 C 
ENDBRANCH  24  26
ENDBRANCH  13  24
TORSDOF 5
