REMARK VINA RESULT:    -6.710      3.456      5.434
REMARK INTER + INTRA:          -9.541
REMARK INTER:                  -8.702
REMARK INTRA:                  -0.839
REMARK UNBOUND:                -0.869
REMARK  Name = 
REMARK  6 active torsions:
REMARK  status: ('A' for Active; 'I' for Inactive)
REMARK    1  A    between atoms: C_1  and  C_2
REMARK    2  A    between atoms: C_4  and  C_5
REMARK    3  A    between atoms: C_5  and  S_6
REMARK    4  A    between atoms: S_6  and  C_8
REMARK    5  A    between atoms: C_20  and  C_21
REMARK    6  A    between atoms: C_21  and  C_23
REMARK                            x       y       z     vdW  Elec       q    Type
REMARK                         _______ _______ _______ _____ _____    ______ ____
ROOT
ATOM      1  C   UNL     1     -57.543 -41.133 -62.837  0.00  0.00    +0.000 A 
ATOM      2  N   UNL     1     -57.117 -39.851 -62.440  0.00  0.00    +0.000 N 
ATOM      3  C   UNL     1     -56.044 -39.205 -63.113  0.00  0.00    +0.000 A 
ATOM      4  C   UNL     1     -55.821 -37.817 -63.046  0.00  0.00    +0.000 A 
ATOM      5 BR   UNL     1     -57.059 -36.666 -62.184  0.00  0.00    +0.000 Br
ATOM      6  C   UNL     1     -54.689 -37.235 -63.633  0.00  0.00    +0.000 A 
ATOM      7  C   UNL     1     -53.776 -38.040 -64.323  0.00  0.00    +0.000 A 
ATOM      8  C   UNL     1     -53.977 -39.418 -64.405  0.00  0.00    +0.000 A 
ATOM      9 CL   UNL     1     -52.832 -40.313 -65.339  0.00  0.00    +0.000 Cl
ATOM     10  C   UNL     1     -55.095 -39.993 -63.782  0.00  0.00    +0.000 A 
ATOM     11  C   UNL     1     -55.345 -41.447 -63.741  0.00  0.00    +0.000 A 
ATOM     12  O   UNL     1     -54.428 -42.259 -63.740  0.00  0.00    +0.000 OA
ATOM     13  C   UNL     1     -56.765 -41.913 -63.620  0.00  0.00    +0.000 A 
ATOM     14  H   UNL     1     -57.907 -39.227 -62.225  0.00  0.00    +0.000 HD
ENDROOT
BRANCH   1  15
ATOM     15  S   UNL     1     -59.319 -41.387 -62.581  0.00  0.00    +0.000 S 
ATOM     16  O   UNL     1     -59.870 -39.998 -62.408  0.00  0.00    +0.000 OA
BRANCH  15  17
ATOM     17  C   UNL     1     -59.585 -42.275 -61.018  0.00  0.00    +0.000 C 
BRANCH  17  21
ATOM     18  C   UNL     1     -61.796 -46.892 -61.133  0.00  0.00    +0.000 C 
ATOM     19  C   UNL     1     -61.313 -45.510 -60.961  0.00  0.00    +0.000 A 
ATOM     20  C   UNL     1     -60.219 -44.806 -61.406  0.00  0.00    +0.000 A 
ATOM     21  C   UNL     1     -60.431 -43.489 -60.942  0.00  0.00    +0.000 A 
ATOM     22  N   UNL     1     -61.552 -43.425 -60.201  0.00  0.00    +0.000 NA
ATOM     23  O   UNL     1     -62.099 -44.690 -60.218  0.00  0.00    +0.000 OA
ENDBRANCH  17  21
ENDBRANCH  15  17
ENDBRANCH   1  15
BRANCH  13  24
ATOM     24  C   UNL     1     -57.101 -43.052 -64.521  0.00  0.00    +0.000 C 
ATOM     25  O   UNL     1     -57.427 -44.132 -64.060  0.00  0.00    +0.000 OA
BRANCH  24  26
ATOM     26  C   UNL     1     -57.079 -42.835 -65.980  0.00  0.00    +0.000 C 
ATOM     27  C   UNL     1     -57.621 -41.548 -66.546  0.00  0.00    +0.000 C 
ATOM     28  C   UNL     1     -58.353 -42.832 -66.790  0.00  0.00    +0.000 C 
ENDBRANCH  24  26
ENDBRANCH  13  24
TORSDOF 5
