REMARK VINA RESULT:    -7.167     10.521     12.945
REMARK INTER + INTRA:         -10.148
REMARK INTER:                  -9.074
REMARK INTRA:                  -1.075
REMARK UNBOUND:                -0.887
REMARK  Name = 
REMARK  8 active torsions:
REMARK  status: ('A' for Active; 'I' for Inactive)
REMARK    1  A    between atoms: C_1  and  C_2
REMARK    2  A    between atoms: C_4  and  C_5
REMARK    3  A    between atoms: C_5  and  S_6
REMARK    4  A    between atoms: S_6  and  C_8
REMARK    5  A    between atoms: C_20  and  C_21
REMARK    6  A    between atoms: C_21  and  C_23
REMARK    7  A    between atoms: C_23  and  C_24
REMARK    8  A    between atoms: C_23  and  C_25
REMARK                            x       y       z     vdW  Elec       q    Type
REMARK                         _______ _______ _______ _____ _____    ______ ____
ROOT
ATOM      1  C   UNL     1     -55.630 -42.276 -77.351  0.00  0.00    +0.000 A 
ATOM      2  N   UNL     1     -54.908 -41.091 -77.241  0.00  0.00    +0.000 N 
ATOM      3  C   UNL     1     -53.566 -41.081 -76.812  0.00  0.00    +0.000 A 
ATOM      4  C   UNL     1     -52.702 -40.004 -77.082  0.00  0.00    +0.000 A 
ATOM      5 BR   UNL     1     -53.253 -38.564 -78.187  0.00  0.00    +0.000 Br
ATOM      6  C   UNL     1     -51.398 -39.984 -76.578  0.00  0.00    +0.000 A 
ATOM      7  C   UNL     1     -50.938 -41.044 -75.801  0.00  0.00    +0.000 A 
ATOM      8  C   UNL     1     -51.784 -42.134 -75.526  0.00  0.00    +0.000 A 
ATOM      9 CL   UNL     1     -51.079 -43.420 -74.614  0.00  0.00    +0.000 Cl
ATOM     10  C   UNL     1     -53.101 -42.150 -76.029  0.00  0.00    +0.000 A 
ATOM     11  C   UNL     1     -54.080 -43.237 -75.769  0.00  0.00    +0.000 A 
ATOM     12  O   UNL     1     -53.958 -43.951 -74.778  0.00  0.00    +0.000 OA
ATOM     13  C   UNL     1     -55.240 -43.422 -76.743  0.00  0.00    +0.000 A 
ATOM     14  H   UNL     1     -55.164 -40.380 -77.940  0.00  0.00    +0.000 HD
ENDROOT
BRANCH   1  15
ATOM     15  S   UNL     1     -56.995 -42.120 -78.563  0.00  0.00    +0.000 S 
ATOM     16  O   UNL     1     -56.360 -41.417 -79.732  0.00  0.00    +0.000 OA
BRANCH  15  17
ATOM     17  C   UNL     1     -58.148 -40.963 -77.750  0.00  0.00    +0.000 C 
BRANCH  17  21
ATOM     18  C   UNL     1     -58.065 -40.951 -72.574  0.00  0.00    +0.000 C 
ATOM     19  C   UNL     1     -58.220 -41.114 -74.036  0.00  0.00    +0.000 A 
ATOM     20  C   UNL     1     -57.808 -40.409 -75.144  0.00  0.00    +0.000 A 
ATOM     21  C   UNL     1     -58.286 -41.158 -76.258  0.00  0.00    +0.000 A 
ATOM     22  N   UNL     1     -58.963 -42.235 -75.826  0.00  0.00    +0.000 NA
ATOM     23  O   UNL     1     -58.916 -42.206 -74.445  0.00  0.00    +0.000 OA
ENDBRANCH  17  21
ENDBRANCH  15  17
ENDBRANCH   1  15
BRANCH  13  24
ATOM     24  C   UNL     1     -55.758 -44.831 -76.924  0.00  0.00    +0.000 C 
ATOM     25  O   UNL     1     -56.937 -45.093 -76.688  0.00  0.00    +0.000 OA
BRANCH  24  26
ATOM     26  C   UNL     1     -54.807 -45.956 -77.336  0.00  0.00    +0.000 C 
ATOM     27  C   UNL     1     -54.679 -47.017 -76.245  0.00  0.00    +0.000 C 
ATOM     28  C   UNL     1     -55.226 -46.603 -78.659  0.00  0.00    +0.000 C 
ENDBRANCH  24  26
ENDBRANCH  13  24
TORSDOF 5
