REMARK VINA RESULT:    -6.686      3.395      5.513
REMARK INTER + INTRA:          -9.531
REMARK INTER:                  -8.671
REMARK INTRA:                  -0.859
REMARK UNBOUND:                -0.891
REMARK  Name = 
REMARK  6 active torsions:
REMARK  status: ('A' for Active; 'I' for Inactive)
REMARK    1  A    between atoms: C_1  and  C_2
REMARK    2  A    between atoms: C_4  and  C_5
REMARK    3  A    between atoms: C_5  and  S_6
REMARK    4  A    between atoms: S_6  and  C_8
REMARK    5  A    between atoms: C_20  and  C_21
REMARK    6  A    between atoms: C_21  and  C_23
REMARK                            x       y       z     vdW  Elec       q    Type
REMARK                         _______ _______ _______ _____ _____    ______ ____
ROOT
ATOM      1  C   UNL     1     -57.810 -43.216 -77.248  0.00  0.00    +0.000 A 
ATOM      2  N   UNL     1     -57.308 -44.494 -77.561  0.00  0.00    +0.000 N 
ATOM      3  C   UNL     1     -56.196 -45.028 -76.853  0.00  0.00    +0.000 A 
ATOM      4  C   UNL     1     -55.889 -46.401 -76.827  0.00  0.00    +0.000 A 
ATOM      5 BR   UNL     1     -57.058 -47.680 -77.600  0.00  0.00    +0.000 Br
ATOM      6  C   UNL     1     -54.722 -46.873 -76.209  0.00  0.00    +0.000 A 
ATOM      7  C   UNL     1     -53.858 -45.968 -75.582  0.00  0.00    +0.000 A 
ATOM      8  C   UNL     1     -54.142 -44.603 -75.592  0.00  0.00    +0.000 A 
ATOM      9 CL   UNL     1     -53.051 -43.579 -74.729  0.00  0.00    +0.000 Cl
ATOM     10  C   UNL     1     -55.294 -44.140 -76.245  0.00  0.00    +0.000 A 
ATOM     11  C   UNL     1     -55.632 -42.710 -76.383  0.00  0.00    +0.000 A 
ATOM     12  O   UNL     1     -54.766 -41.846 -76.445  0.00  0.00    +0.000 OA
ATOM     13  C   UNL     1     -57.078 -42.339 -76.526  0.00  0.00    +0.000 A 
ATOM     14  H   UNL     1     -58.059 -45.178 -77.728  0.00  0.00    +0.000 HD
ENDROOT
BRANCH   1  15
ATOM     15  S   UNL     1     -59.598 -43.088 -77.509  0.00  0.00    +0.000 S 
ATOM     16  O   UNL     1     -60.050 -44.512 -77.680  0.00  0.00    +0.000 OA
BRANCH  15  17
ATOM     17  C   UNL     1     -59.922 -42.223 -79.074  0.00  0.00    +0.000 C 
BRANCH  17  21
ATOM     18  C   UNL     1     -61.590 -37.383 -78.982  0.00  0.00    +0.000 C 
ATOM     19  C   UNL     1     -61.286 -38.819 -79.120  0.00  0.00    +0.000 A 
ATOM     20  C   UNL     1     -60.220 -39.619 -78.782  0.00  0.00    +0.000 A 
ATOM     21  C   UNL     1     -60.636 -40.926 -79.119  0.00  0.00    +0.000 A 
ATOM     22  N   UNL     1     -61.852 -40.901 -79.692  0.00  0.00    +0.000 NA
ATOM     23  O   UNL     1     -62.254 -39.582 -79.688  0.00  0.00    +0.000 OA
ENDBRANCH  17  21
ENDBRANCH  15  17
ENDBRANCH   1  15
BRANCH  13  24
ATOM     24  C   UNL     1     -57.480 -41.164 -75.701  0.00  0.00    +0.000 C 
ATOM     25  O   UNL     1     -57.475 -40.042 -76.178  0.00  0.00    +0.000 OA
BRANCH  24  26
ATOM     26  C   UNL     1     -57.929 -41.388 -74.314  0.00  0.00    +0.000 C 
ATOM     27  C   UNL     1     -57.948 -40.233 -73.346  0.00  0.00    +0.000 C 
ATOM     28  C   UNL     1     -56.957 -41.341 -73.160  0.00  0.00    +0.000 C 
ENDBRANCH  24  26
ENDBRANCH  13  24
TORSDOF 5
