REMARK VINA RESULT:    -4.927     24.681     26.015
REMARK INTER + INTRA:          -6.749
REMARK INTER:                  -6.406
REMARK INTRA:                  -0.343
REMARK UNBOUND:                -0.670
REMARK  Name = 
REMARK  6 active torsions:
REMARK  status: ('A' for Active; 'I' for Inactive)
REMARK    1  A    between atoms: C_1  and  C_2
REMARK    2  A    between atoms: C_2  and  C_4
REMARK    3  A    between atoms: C_5  and  S_6
REMARK    4  A    between atoms: S_6  and  C_8
REMARK    5  A    between atoms: C_8  and  C_9
REMARK    6  A    between atoms: C_11  and  C_12
REMARK                            x       y       z     vdW  Elec       q    Type
REMARK                         _______ _______ _______ _____ _____    ______ ____
ROOT
ATOM      1  C   UNL     1     -66.369 -49.922 -54.165  0.00  0.00    +0.000 A 
ATOM      2  C   UNL     1     -67.422 -49.799 -55.004  0.00  0.00    +0.000 A 
ATOM      3  N   UNL     1     -68.320 -50.821 -55.247  0.00  0.00    +0.000 N 
ATOM      4  C   UNL     1     -68.147 -52.123 -54.750  0.00  0.00    +0.000 A 
ATOM      5  C   UNL     1     -69.074 -53.141 -55.045  0.00  0.00    +0.000 A 
ATOM      6 BR   UNL     1     -70.547 -52.813 -56.199  0.00  0.00    +0.000 Br
ATOM      7  C   UNL     1     -68.938 -54.420 -54.508  0.00  0.00    +0.000 A 
ATOM      8  C   UNL     1     -67.873 -54.695 -53.655  0.00  0.00    +0.000 A 
ATOM      9  C   UNL     1     -66.946 -53.695 -53.328  0.00  0.00    +0.000 A 
ATOM     10 CL   UNL     1     -65.686 -54.196 -52.255  0.00  0.00    +0.000 Cl
ATOM     11  C   UNL     1     -67.092 -52.401 -53.861  0.00  0.00    +0.000 A 
ATOM     12  C   UNL     1     -66.150 -51.287 -53.566  0.00  0.00    +0.000 A 
ATOM     13  O   UNL     1     -65.163 -51.493 -52.873  0.00  0.00    +0.000 OA
ATOM     14  H   UNL     1     -68.856 -50.746 -56.114  0.00  0.00    +0.000 HD
ENDROOT
BRANCH   1  16
ATOM     15  C   UNL     1     -64.031 -48.819 -54.488  0.00  0.00    +0.000 C 
ATOM     16  C   UNL     1     -65.396 -48.818 -53.835  0.00  0.00    +0.000 C 
ATOM     17  O   UNL     1     -65.674 -47.927 -53.032  0.00  0.00    +0.000 OA
ENDBRANCH   1  16
BRANCH   2  18
ATOM     18  S   UNL     1     -67.640 -48.304 -56.031  0.00  0.00    +0.000 S 
ATOM     19  O   UNL     1     -66.424 -48.307 -56.919  0.00  0.00    +0.000 OA
BRANCH  18  20
ATOM     20  C   UNL     1     -69.034 -48.847 -57.082  0.00  0.00    +0.000 C 
BRANCH  20  21
ATOM     21  C   UNL     1     -69.322 -47.904 -58.208  0.00  0.00    +0.000 A 
ATOM     22  C   UNL     1     -68.440 -47.215 -59.084  0.00  0.00    +0.000 A 
ATOM     23  C   UNL     1     -69.264 -46.551 -59.958  0.00  0.00    +0.000 A 
ATOM     24  C   UNL     1     -69.043 -45.653 -61.111  0.00  0.00    +0.000 C 
ATOM     25  O   UNL     1     -70.555 -46.828 -59.649  0.00  0.00    +0.000 OA
ATOM     26  N   UNL     1     -70.598 -47.679 -58.558  0.00  0.00    +0.000 NA
ENDBRANCH  20  21
ENDBRANCH  18  20
ENDBRANCH   2  18
TORSDOF 4
