REMARK VINA RESULT:    -6.064     12.897     15.207
REMARK INTER + INTRA:          -8.706
REMARK INTER:                  -8.064
REMARK INTRA:                  -0.642
REMARK UNBOUND:                -0.869
REMARK  Name = 
REMARK  6 active torsions:
REMARK  status: ('A' for Active; 'I' for Inactive)
REMARK    1  A    between atoms: C_1  and  C_2
REMARK    2  A    between atoms: C_4  and  C_5
REMARK    3  A    between atoms: C_5  and  S_6
REMARK    4  A    between atoms: S_6  and  C_8
REMARK    5  A    between atoms: C_20  and  C_21
REMARK    6  A    between atoms: C_21  and  C_23
REMARK                            x       y       z     vdW  Elec       q    Type
REMARK                         _______ _______ _______ _____ _____    ______ ____
ROOT
ATOM      1  C   UNL     1     -56.408 -41.203 -78.821  0.00  0.00    +0.000 A 
ATOM      2  N   UNL     1     -55.709 -41.354 -80.034  0.00  0.00    +0.000 N 
ATOM      3  C   UNL     1     -54.333 -41.712 -80.036  0.00  0.00    +0.000 A 
ATOM      4  C   UNL     1     -53.682 -42.253 -81.161  0.00  0.00    +0.000 A 
ATOM      5 BR   UNL     1     -54.651 -42.716 -82.725  0.00  0.00    +0.000 Br
ATOM      6  C   UNL     1     -52.300 -42.488 -81.155  0.00  0.00    +0.000 A 
ATOM      7  C   UNL     1     -51.555 -42.209 -80.004  0.00  0.00    +0.000 A 
ATOM      8  C   UNL     1     -52.178 -41.674 -78.876  0.00  0.00    +0.000 A 
ATOM      9 CL   UNL     1     -51.185 -41.433 -77.485  0.00  0.00    +0.000 Cl
ATOM     10  C   UNL     1     -53.556 -41.409 -78.907  0.00  0.00    +0.000 A 
ATOM     11  C   UNL     1     -54.285 -40.767 -77.797  0.00  0.00    +0.000 A 
ATOM     12  O   UNL     1     -53.742 -39.964 -77.048  0.00  0.00    +0.000 OA
ATOM     13  C   UNL     1     -55.748 -41.064 -77.651  0.00  0.00    +0.000 A 
ATOM     14  H   UNL     1     -56.266 -41.846 -80.746  0.00  0.00    +0.000 HD
ENDROOT
BRANCH   1  15
ATOM     15  S   UNL     1     -58.156 -41.659 -78.964  0.00  0.00    +0.000 S 
ATOM     16  O   UNL     1     -58.450 -41.540 -80.435  0.00  0.00    +0.000 OA
BRANCH  15  17
ATOM     17  C   UNL     1     -59.177 -40.425 -78.105  0.00  0.00    +0.000 C 
BRANCH  17  21
ATOM     18  C   UNL     1     -62.874 -37.536 -80.154  0.00  0.00    +0.000 C 
ATOM     19  C   UNL     1     -61.904 -38.532 -79.662  0.00  0.00    +0.000 A 
ATOM     20  C   UNL     1     -60.736 -38.469 -78.939  0.00  0.00    +0.000 A 
ATOM     21  C   UNL     1     -60.370 -39.818 -78.738  0.00  0.00    +0.000 A 
ATOM     22  N   UNL     1     -61.232 -40.639 -79.364  0.00  0.00    +0.000 NA
ATOM     23  O   UNL     1     -62.189 -39.829 -79.939  0.00  0.00    +0.000 OA
ENDBRANCH  17  21
ENDBRANCH  15  17
ENDBRANCH   1  15
BRANCH  13  24
ATOM     24  C   UNL     1     -56.169 -41.323 -76.244  0.00  0.00    +0.000 C 
ATOM     25  O   UNL     1     -56.900 -40.539 -75.663  0.00  0.00    +0.000 OA
BRANCH  24  26
ATOM     26  C   UNL     1     -55.727 -42.566 -75.586  0.00  0.00    +0.000 C 
ATOM     27  C   UNL     1     -55.764 -43.864 -76.352  0.00  0.00    +0.000 C 
ATOM     28  C   UNL     1     -56.712 -43.648 -75.212  0.00  0.00    +0.000 C 
ENDBRANCH  24  26
ENDBRANCH  13  24
TORSDOF 5
