REMARK VINA RESULT:    -6.011     15.540     16.838
REMARK INTER + INTRA:          -8.258
REMARK INTER:                  -7.281
REMARK INTRA:                  -0.977
REMARK UNBOUND:                -0.841
REMARK  Name = 
REMARK  6 active torsions:
REMARK  status: ('A' for Active; 'I' for Inactive)
REMARK    1  A    between atoms: C_1  and  C_2
REMARK    2  A    between atoms: C_2  and  C_4
REMARK    3  A    between atoms: C_5  and  S_6
REMARK    4  A    between atoms: S_6  and  C_8
REMARK    5  A    between atoms: C_8  and  C_9
REMARK    6  A    between atoms: C_11  and  C_12
REMARK                            x       y       z     vdW  Elec       q    Type
REMARK                         _______ _______ _______ _____ _____    ______ ____
ROOT
ATOM      1  C   UNL     1     -53.347 -41.867 -78.237  0.00  0.00    +0.000 A 
ATOM      2  C   UNL     1     -54.678 -41.683 -78.379  0.00  0.00    +0.000 A 
ATOM      3  N   UNL     1     -55.327 -41.709 -79.597  0.00  0.00    +0.000 N 
ATOM      4  C   UNL     1     -54.644 -41.784 -80.821  0.00  0.00    +0.000 A 
ATOM      5  C   UNL     1     -55.349 -41.764 -82.041  0.00  0.00    +0.000 A 
ATOM      6 BR   UNL     1     -57.237 -41.563 -82.074  0.00  0.00    +0.000 Br
ATOM      7  C   UNL     1     -54.683 -41.888 -83.256  0.00  0.00    +0.000 A 
ATOM      8  C   UNL     1     -53.299 -42.045 -83.268  0.00  0.00    +0.000 A 
ATOM      9  C   UNL     1     -52.579 -42.093 -82.067  0.00  0.00    +0.000 A 
ATOM     10 CL   UNL     1     -50.869 -42.281 -82.247  0.00  0.00    +0.000 Cl
ATOM     11  C   UNL     1     -53.253 -41.982 -80.835  0.00  0.00    +0.000 A 
ATOM     12  C   UNL     1     -52.561 -42.033 -79.513  0.00  0.00    +0.000 A 
ATOM     13  O   UNL     1     -51.345 -42.169 -79.464  0.00  0.00    +0.000 OA
ATOM     14  H   UNL     1     -56.221 -41.214 -79.626  0.00  0.00    +0.000 HD
ENDROOT
BRANCH   1  16
ATOM     15  C   UNL     1     -51.947 -40.609 -76.435  0.00  0.00    +0.000 C 
ATOM     16  C   UNL     1     -52.624 -41.875 -76.915  0.00  0.00    +0.000 C 
ATOM     17  O   UNL     1     -52.569 -42.882 -76.214  0.00  0.00    +0.000 OA
ENDBRANCH   1  16
BRANCH   2  18
ATOM     18  S   UNL     1     -55.728 -41.217 -76.963  0.00  0.00    +0.000 S 
ATOM     19  O   UNL     1     -56.455 -39.994 -77.456  0.00  0.00    +0.000 OA
BRANCH  18  20
ATOM     20  C   UNL     1     -56.939 -42.586 -77.031  0.00  0.00    +0.000 C 
BRANCH  20  21
ATOM     21  C   UNL     1     -56.294 -43.924 -76.878  0.00  0.00    +0.000 A 
ATOM     22  C   UNL     1     -55.619 -44.493 -75.767  0.00  0.00    +0.000 A 
ATOM     23  C   UNL     1     -55.236 -45.740 -76.194  0.00  0.00    +0.000 A 
ATOM     24  C   UNL     1     -54.463 -46.845 -75.600  0.00  0.00    +0.000 C 
ATOM     25  O   UNL     1     -55.692 -45.934 -77.459  0.00  0.00    +0.000 OA
ATOM     26  N   UNL     1     -56.361 -44.803 -77.890  0.00  0.00    +0.000 NA
ENDBRANCH  20  21
ENDBRANCH  18  20
ENDBRANCH   2  18
TORSDOF 4
