REMARK VINA RESULT:    -6.826     10.914     13.487
REMARK INTER + INTRA:         -10.059
REMARK INTER:                  -9.000
REMARK INTRA:                  -1.059
REMARK UNBOUND:                -1.238
REMARK  Name = 
REMARK  8 active torsions:
REMARK  status: ('A' for Active; 'I' for Inactive)
REMARK    1  A    between atoms: C_1  and  C_2
REMARK    2  A    between atoms: C_4  and  C_5
REMARK    3  A    between atoms: C_5  and  S_6
REMARK    4  A    between atoms: S_6  and  C_8
REMARK    5  A    between atoms: C_20  and  C_21
REMARK    6  A    between atoms: C_21  and  C_23
REMARK    7  A    between atoms: C_23  and  C_24
REMARK    8  A    between atoms: C_23  and  C_25
REMARK                            x       y       z     vdW  Elec       q    Type
REMARK                         _______ _______ _______ _____ _____    ______ ____
ROOT
ATOM      1  C   UNL     1     -55.686 -42.328 -77.425  0.00  0.00    +0.000 A 
ATOM      2  N   UNL     1     -54.954 -41.150 -77.316  0.00  0.00    +0.000 N 
ATOM      3  C   UNL     1     -53.621 -41.147 -76.861  0.00  0.00    +0.000 A 
ATOM      4  C   UNL     1     -52.740 -40.082 -77.127  0.00  0.00    +0.000 A 
ATOM      5 BR   UNL     1     -53.255 -38.651 -78.261  0.00  0.00    +0.000 Br
ATOM      6  C   UNL     1     -51.447 -40.069 -76.598  0.00  0.00    +0.000 A 
ATOM      7  C   UNL     1     -51.013 -41.123 -75.799  0.00  0.00    +0.000 A 
ATOM      8  C   UNL     1     -51.875 -42.201 -75.527  0.00  0.00    +0.000 A 
ATOM      9 CL   UNL     1     -51.201 -43.482 -74.585  0.00  0.00    +0.000 Cl
ATOM     10  C   UNL     1     -53.182 -42.211 -76.055  0.00  0.00    +0.000 A 
ATOM     11  C   UNL     1     -54.177 -43.284 -75.801  0.00  0.00    +0.000 A 
ATOM     12  O   UNL     1     -54.081 -43.986 -74.799  0.00  0.00    +0.000 OA
ATOM     13  C   UNL     1     -55.319 -43.470 -76.795  0.00  0.00    +0.000 A 
ATOM     14  H   UNL     1     -55.189 -40.445 -78.029  0.00  0.00    +0.000 HD
ENDROOT
BRANCH   1  15
ATOM     15  S   UNL     1     -57.025 -42.175 -78.666  0.00  0.00    +0.000 S 
ATOM     16  O   UNL     1     -56.379 -41.429 -79.802  0.00  0.00    +0.000 OA
BRANCH  15  17
ATOM     17  C   UNL     1     -58.224 -41.064 -77.854  0.00  0.00    +0.000 C 
BRANCH  17  21
ATOM     18  C   UNL     1     -57.945 -40.862 -72.689  0.00  0.00    +0.000 C 
ATOM     19  C   UNL     1     -58.148 -41.083 -74.137  0.00  0.00    +0.000 A 
ATOM     20  C   UNL     1     -57.806 -40.405 -75.284  0.00  0.00    +0.000 A 
ATOM     21  C   UNL     1     -58.297 -41.210 -76.352  0.00  0.00    +0.000 A 
ATOM     22  N   UNL     1     -58.916 -42.295 -75.856  0.00  0.00    +0.000 NA
ATOM     23  O   UNL     1     -58.818 -42.214 -74.480  0.00  0.00    +0.000 OA
ENDBRANCH  17  21
ENDBRANCH  15  17
ENDBRANCH   1  15
BRANCH  13  24
ATOM     24  C   UNL     1     -55.848 -44.876 -76.968  0.00  0.00    +0.000 C 
ATOM     25  O   UNL     1     -57.035 -45.122 -76.758  0.00  0.00    +0.000 OA
BRANCH  24  26
ATOM     26  C   UNL     1     -54.900 -46.017 -77.341  0.00  0.00    +0.000 C 
ATOM     27  C   UNL     1     -54.795 -47.053 -76.224  0.00  0.00    +0.000 C 
ATOM     28  C   UNL     1     -55.305 -46.692 -78.654  0.00  0.00    +0.000 C 
ENDBRANCH  24  26
ENDBRANCH  13  24
TORSDOF 5
