REMARK VINA RESULT:    -5.958     14.880     15.728
REMARK INTER + INTRA:          -8.021
REMARK INTER:                  -7.222
REMARK INTRA:                  -0.799
REMARK UNBOUND:                -0.670
REMARK  Name = 
REMARK  6 active torsions:
REMARK  status: ('A' for Active; 'I' for Inactive)
REMARK    1  A    between atoms: C_1  and  C_2
REMARK    2  A    between atoms: C_2  and  C_4
REMARK    3  A    between atoms: C_5  and  S_6
REMARK    4  A    between atoms: S_6  and  C_8
REMARK    5  A    between atoms: C_8  and  C_9
REMARK    6  A    between atoms: C_11  and  C_12
REMARK                            x       y       z     vdW  Elec       q    Type
REMARK                         _______ _______ _______ _____ _____    ______ ____
ROOT
ATOM      1  C   UNL     1     -56.345 -42.256 -63.060  0.00  0.00    +0.000 A 
ATOM      2  C   UNL     1     -57.020 -41.514 -62.152  0.00  0.00    +0.000 A 
ATOM      3  N   UNL     1     -56.787 -41.586 -60.792  0.00  0.00    +0.000 N 
ATOM      4  C   UNL     1     -55.923 -42.531 -60.214  0.00  0.00    +0.000 A 
ATOM      5  C   UNL     1     -55.737 -42.585 -58.820  0.00  0.00    +0.000 A 
ATOM      6 BR   UNL     1     -56.713 -41.440 -57.660  0.00  0.00    +0.000 Br
ATOM      7  C   UNL     1     -54.838 -43.482 -58.247  0.00  0.00    +0.000 A 
ATOM      8  C   UNL     1     -54.103 -44.334 -59.065  0.00  0.00    +0.000 A 
ATOM      9  C   UNL     1     -54.254 -44.288 -60.458  0.00  0.00    +0.000 A 
ATOM     10 CL   UNL     1     -53.267 -45.406 -61.334  0.00  0.00    +0.000 Cl
ATOM     11  C   UNL     1     -55.152 -43.372 -61.038  0.00  0.00    +0.000 A 
ATOM     12  C   UNL     1     -55.373 -43.264 -62.506  0.00  0.00    +0.000 A 
ATOM     13  O   UNL     1     -54.798 -44.032 -63.264  0.00  0.00    +0.000 OA
ATOM     14  H   UNL     1     -57.546 -41.255 -60.193  0.00  0.00    +0.000 HD
ENDROOT
BRANCH   1  16
ATOM     15  C   UNL     1     -57.508 -43.114 -65.227  0.00  0.00    +0.000 C 
ATOM     16  C   UNL     1     -56.534 -42.172 -64.553  0.00  0.00    +0.000 C 
ATOM     17  O   UNL     1     -55.901 -41.373 -65.244  0.00  0.00    +0.000 OA
ENDBRANCH   1  16
BRANCH   2  18
ATOM     18  S   UNL     1     -58.436 -40.472 -62.651  0.00  0.00    +0.000 S 
ATOM     19  O   UNL     1     -59.617 -41.158 -62.017  0.00  0.00    +0.000 OA
BRANCH  18  20
ATOM     20  C   UNL     1     -58.106 -38.989 -61.635  0.00  0.00    +0.000 C 
BRANCH  20  21
ATOM     21  C   UNL     1     -57.269 -37.968 -62.341  0.00  0.00    +0.000 A 
ATOM     22  C   UNL     1     -56.131 -38.126 -63.178  0.00  0.00    +0.000 A 
ATOM     23  C   UNL     1     -55.825 -36.854 -63.594  0.00  0.00    +0.000 A 
ATOM     24  C   UNL     1     -54.782 -36.272 -64.464  0.00  0.00    +0.000 C 
ATOM     25  O   UNL     1     -56.721 -35.986 -63.063  0.00  0.00    +0.000 OA
ATOM     26  N   UNL     1     -57.630 -36.677 -62.282  0.00  0.00    +0.000 NA
ENDBRANCH  20  21
ENDBRANCH  18  20
ENDBRANCH   2  18
TORSDOF 4
