REMARK VINA RESULT:    -6.272      4.276      6.219
REMARK INTER + INTRA:          -8.480
REMARK INTER:                  -7.720
REMARK INTRA:                  -0.759
REMARK UNBOUND:                -0.741
REMARK  Name = 
REMARK  5 active torsions:
REMARK  status: ('A' for Active; 'I' for Inactive)
REMARK    1  A    between atoms: C_1  and  C_2
REMARK    2  A    between atoms: C_2  and  C_4
REMARK    3  A    between atoms: C_5  and  S_6
REMARK    4  A    between atoms: S_6  and  C_8
REMARK    5  A    between atoms: C_8  and  C_9
REMARK                            x       y       z     vdW  Elec       q    Type
REMARK                         _______ _______ _______ _____ _____    ______ ____
ROOT
ATOM      1  C   UNL     1     -57.082 -41.760 -80.093  0.00  0.00    +0.000 A 
ATOM      2  C   UNL     1     -56.823 -41.437 -78.808  0.00  0.00    +0.000 A 
ATOM      3  N   UNL     1     -55.548 -41.225 -78.312  0.00  0.00    +0.000 N 
ATOM      4  C   UNL     1     -54.407 -41.589 -79.048  0.00  0.00    +0.000 A 
ATOM      5  C   UNL     1     -53.133 -41.586 -78.455  0.00  0.00    +0.000 A 
ATOM      6 BR   UNL     1     -52.911 -41.146 -76.621  0.00  0.00    +0.000 Br
ATOM      7  C   UNL     1     -52.004 -41.919 -79.195  0.00  0.00    +0.000 A 
ATOM      8  C   UNL     1     -52.136 -42.255 -80.542  0.00  0.00    +0.000 A 
ATOM      9  C   UNL     1     -53.392 -42.236 -81.158  0.00  0.00    +0.000 A 
ATOM     10 CL   UNL     1     -53.433 -42.735 -82.812  0.00  0.00    +0.000 Cl
ATOM     11  C   UNL     1     -54.529 -41.874 -80.420  0.00  0.00    +0.000 A 
ATOM     12  C   UNL     1     -55.894 -41.758 -81.006  0.00  0.00    +0.000 A 
ATOM     13  O   UNL     1     -56.054 -41.623 -82.214  0.00  0.00    +0.000 OA
ATOM     14  H   UNL     1     -55.463 -41.369 -77.304  0.00  0.00    +0.000 HD
ENDROOT
BRANCH   1  16
ATOM     15  C   UNL     1     -58.883 -43.545 -80.686  0.00  0.00    +0.000 C 
ATOM     16  C   UNL     1     -58.438 -42.101 -80.640  0.00  0.00    +0.000 C 
ATOM     17  O   UNL     1     -59.205 -41.221 -81.047  0.00  0.00    +0.000 OA
ENDBRANCH   1  16
BRANCH   2  18
ATOM     18  S   UNL     1     -58.141 -41.419 -77.567  0.00  0.00    +0.000 S 
ATOM     19  O   UNL     1     -58.082 -42.797 -76.967  0.00  0.00    +0.000 OA
BRANCH  18  20
ATOM     20  C   UNL     1     -57.385 -40.305 -76.324  0.00  0.00    +0.000 C 
BRANCH  20  21
ATOM     21  C   UNL     1     -57.261 -40.790 -74.898  0.00  0.00    +0.000 A 
ATOM     22  C   UNL     1     -58.152 -40.425 -73.884  0.00  0.00    +0.000 A 
ATOM     23  C   UNL     1     -58.028 -40.963 -72.600  0.00  0.00    +0.000 A 
ATOM     24  C   UNL     1     -57.030 -41.893 -72.318  0.00  0.00    +0.000 A 
ATOM     25  C   UNL     1     -56.155 -42.290 -73.324  0.00  0.00    +0.000 A 
ATOM     26  C   UNL     1     -56.272 -41.748 -74.605  0.00  0.00    +0.000 A 
ENDBRANCH  20  21
ENDBRANCH  18  20
ENDBRANCH   2  18
TORSDOF 4
