REMARK VINA RESULT:    -5.409     10.540     13.202
REMARK INTER + INTRA:          -7.673
REMARK INTER:                  -6.718
REMARK INTRA:                  -0.955
REMARK UNBOUND:                -0.684
REMARK  Name = 
REMARK  8 active torsions:
REMARK  status: ('A' for Active; 'I' for Inactive)
REMARK    1  A    between atoms: C_1  and  C_2
REMARK    2  A    between atoms: C_4  and  C_5
REMARK    3  A    between atoms: C_5  and  S_6
REMARK    4  A    between atoms: S_6  and  C_8
REMARK    5  A    between atoms: C_20  and  C_21
REMARK    6  A    between atoms: C_21  and  C_23
REMARK    7  A    between atoms: C_23  and  C_24
REMARK    8  A    between atoms: C_23  and  C_25
REMARK                            x       y       z     vdW  Elec       q    Type
REMARK                         _______ _______ _______ _____ _____    ______ ____
ROOT
ATOM      1  C   UNL     1     -65.713 -41.103 -70.223  0.00  0.00    +0.000 A 
ATOM      2  N   UNL     1     -66.238 -41.669 -71.380  0.00  0.00    +0.000 N 
ATOM      3  C   UNL     1     -65.455 -42.477 -72.228  0.00  0.00    +0.000 A 
ATOM      4  C   UNL     1     -66.030 -43.381 -73.142  0.00  0.00    +0.000 A 
ATOM      5 BR   UNL     1     -67.902 -43.683 -73.169  0.00  0.00    +0.000 Br
ATOM      6  C   UNL     1     -65.233 -44.113 -74.026  0.00  0.00    +0.000 A 
ATOM      7  C   UNL     1     -63.850 -43.957 -74.007  0.00  0.00    +0.000 A 
ATOM      8  C   UNL     1     -63.255 -43.064 -73.097  0.00  0.00    +0.000 A 
ATOM      9 CL   UNL     1     -61.529 -43.009 -73.117  0.00  0.00    +0.000 Cl
ATOM     10  C   UNL     1     -64.060 -42.320 -72.209  0.00  0.00    +0.000 A 
ATOM     11  C   UNL     1     -63.533 -41.330 -71.235  0.00  0.00    +0.000 A 
ATOM     12  O   UNL     1     -62.447 -40.793 -71.431  0.00  0.00    +0.000 OA
ATOM     13  C   UNL     1     -64.380 -40.988 -70.013  0.00  0.00    +0.000 A 
ATOM     14  H   UNL     1     -67.233 -41.924 -71.306  0.00  0.00    +0.000 HD
ENDROOT
BRANCH   1  15
ATOM     15  S   UNL     1     -67.023 -40.759 -68.989  0.00  0.00    +0.000 S 
ATOM     16  O   UNL     1     -67.124 -42.039 -68.206  0.00  0.00    +0.000 OA
BRANCH  15  17
ATOM     17  C   UNL     1     -68.525 -40.585 -70.010  0.00  0.00    +0.000 C 
BRANCH  17  21
ATOM     18  C   UNL     1     -70.675 -35.883 -70.276  0.00  0.00    +0.000 C 
ATOM     19  C   UNL     1     -70.148 -37.240 -70.012  0.00  0.00    +0.000 A 
ATOM     20  C   UNL     1     -69.466 -38.181 -70.750  0.00  0.00    +0.000 A 
ATOM     21  C   UNL     1     -69.243 -39.265 -69.853  0.00  0.00    +0.000 A 
ATOM     22  N   UNL     1     -69.785 -38.984 -68.656  0.00  0.00    +0.000 NA
ATOM     23  O   UNL     1     -70.342 -37.724 -68.759  0.00  0.00    +0.000 OA
ENDBRANCH  17  21
ENDBRANCH  15  17
ENDBRANCH   1  15
BRANCH  13  24
ATOM     24  C   UNL     1     -63.633 -40.616 -68.751  0.00  0.00    +0.000 C 
ATOM     25  O   UNL     1     -63.494 -39.433 -68.440  0.00  0.00    +0.000 OA
BRANCH  24  26
ATOM     26  C   UNL     1     -62.987 -41.700 -67.887  0.00  0.00    +0.000 C 
ATOM     27  C   UNL     1     -63.700 -43.041 -68.036  0.00  0.00    +0.000 C 
ATOM     28  C   UNL     1     -61.494 -41.855 -68.186  0.00  0.00    +0.000 C 
ENDBRANCH  24  26
ENDBRANCH  13  24
TORSDOF 5
