REMARK VINA RESULT:    -5.890      4.613      7.416
REMARK INTER + INTRA:          -8.554
REMARK INTER:                  -7.744
REMARK INTRA:                  -0.811
REMARK UNBOUND:                -0.943
REMARK  Name = 
REMARK  6 active torsions:
REMARK  status: ('A' for Active; 'I' for Inactive)
REMARK    1  A    between atoms: C_1  and  C_2
REMARK    2  A    between atoms: C_4  and  C_5
REMARK    3  A    between atoms: C_5  and  S_6
REMARK    4  A    between atoms: S_6  and  C_8
REMARK    5  A    between atoms: C_20  and  C_21
REMARK    6  A    between atoms: C_21  and  C_23
REMARK                            x       y       z     vdW  Elec       q    Type
REMARK                         _______ _______ _______ _____ _____    ______ ____
ROOT
ATOM      1  C   UNL     1     -54.469 -43.273 -78.004  0.00  0.00    +0.000 A 
ATOM      2  N   UNL     1     -54.748 -44.182 -79.043  0.00  0.00    +0.000 N 
ATOM      3  C   UNL     1     -55.334 -45.446 -78.760  0.00  0.00    +0.000 A 
ATOM      4  C   UNL     1     -55.989 -46.224 -79.734  0.00  0.00    +0.000 A 
ATOM      5 BR   UNL     1     -56.296 -45.551 -81.480  0.00  0.00    +0.000 Br
ATOM      6  C   UNL     1     -56.456 -47.512 -79.439  0.00  0.00    +0.000 A 
ATOM      7  C   UNL     1     -56.295 -48.028 -78.148  0.00  0.00    +0.000 A 
ATOM      8  C   UNL     1     -55.652 -47.275 -77.165  0.00  0.00    +0.000 A 
ATOM      9 CL   UNL     1     -55.569 -47.971 -75.587  0.00  0.00    +0.000 Cl
ATOM     10  C   UNL     1     -55.157 -46.001 -77.483  0.00  0.00    +0.000 A 
ATOM     11  C   UNL     1     -54.390 -45.168 -76.537  0.00  0.00    +0.000 A 
ATOM     12  O   UNL     1     -53.683 -45.663 -75.668  0.00  0.00    +0.000 OA
ATOM     13  C   UNL     1     -54.433 -43.679 -76.716  0.00  0.00    +0.000 A 
ATOM     14  H   UNL     1     -55.146 -43.717 -79.871  0.00  0.00    +0.000 HD
ENDROOT
BRANCH   1  15
ATOM     15  S   UNL     1     -54.623 -41.545 -78.530  0.00  0.00    +0.000 S 
ATOM     16  O   UNL     1     -56.062 -41.203 -78.256  0.00  0.00    +0.000 OA
BRANCH  15  17
ATOM     17  C   UNL     1     -54.370 -41.433 -80.326  0.00  0.00    +0.000 C 
BRANCH  17  21
ATOM     18  C   UNL     1     -50.350 -42.553 -83.293  0.00  0.00    +0.000 C 
ATOM     19  C   UNL     1     -51.379 -42.273 -82.274  0.00  0.00    +0.000 A 
ATOM     20  C   UNL     1     -52.668 -41.796 -82.307  0.00  0.00    +0.000 A 
ATOM     21  C   UNL     1     -53.107 -41.868 -80.967  0.00  0.00    +0.000 A 
ATOM     22  N   UNL     1     -52.115 -42.296 -80.167  0.00  0.00    +0.000 NA
ATOM     23  O   UNL     1     -51.037 -42.549 -80.990  0.00  0.00    +0.000 OA
ENDBRANCH  17  21
ENDBRANCH  15  17
ENDBRANCH   1  15
BRANCH  13  24
ATOM     24  C   UNL     1     -54.602 -42.927 -75.440  0.00  0.00    +0.000 C 
ATOM     25  O   UNL     1     -53.638 -42.665 -74.742  0.00  0.00    +0.000 OA
BRANCH  24  26
ATOM     26  C   UNL     1     -55.951 -42.464 -75.061  0.00  0.00    +0.000 C 
ATOM     27  C   UNL     1     -56.296 -42.303 -73.603  0.00  0.00    +0.000 C 
ATOM     28  C   UNL     1     -56.941 -43.395 -74.401  0.00  0.00    +0.000 C 
ENDBRANCH  24  26
ENDBRANCH  13  24
TORSDOF 5
