=
 OpenBabel09162515233D

 26 28  0  0  0  0  0  0  0  0999 V2000
  -55.9980  -42.4950  -62.8000 C   0  0  0  0  0  0  0  0  0  0  0  0
  -55.7120  -41.3490  -63.4590 C   0  0  0  0  0  0  0  0  0  0  0  0
  -54.4980  -41.1160  -64.0760 N   0  0  0  0  0  0  0  0  0  0  0  0
  -53.3920  -41.9740  -63.9330 C   0  0  0  0  0  0  0  0  0  0  0  0
  -52.1500  -41.6610  -64.5130 C   0  0  0  0  0  0  0  0  0  0  0  0
  -51.8940  -40.0230  -65.4420 Br  0  0  0  0  0  0  0  0  0  0  0  0
  -51.0690  -42.5350  -64.4170 C   0  0  0  0  0  3  0  0  0  0  0  0
  -51.2190  -43.7410  -63.7460 C   0  0  0  0  0  3  0  0  0  0  0  0
  -52.4530  -44.0910  -63.1780 C   0  0  0  0  0  0  0  0  0  0  0  0
  -52.4770  -45.6190  -62.3680 Cl  0  0  0  0  0  0  0  0  0  0  0  0
  -53.5490  -43.2100  -63.2820 C   0  0  0  0  0  0  0  0  0  0  0  0
  -54.8830  -43.5050  -62.7000 C   0  0  0  0  0  0  0  0  0  0  0  0
  -55.0690  -44.5510  -62.1020 O   0  0  0  0  0  0  0  0  0  0  0  0
  -54.2640  -40.1340  -64.2280 H   0  0  0  0  0  0  0  0  0  0  0  0
  -58.4170  -43.4730  -62.9260 C   0  0  0  0  0  1  0  0  0  0  0  0
  -57.3240  -42.7950  -62.1320 C   0  0  0  0  0  0  0  0  0  0  0  0
  -57.5380  -42.4940  -60.9570 O   0  0  0  0  0  0  0  0  0  0  0  0
  -56.8530  -39.9270  -63.4360 S   0  0  1  0  0  0  0  0  0  0  0  0
  -56.6580  -39.3430  -62.0620 O   0  0  0  0  0  0  0  0  0  0  0  0
  -55.9760  -38.8100  -64.5880 C   0  0  0  0  0  2  0  0  0  0  0  0
  -55.3050  -37.6710  -63.8870 C   0  0  0  0  0  0  0  0  0  0  0  0
  -55.7810  -36.3660  -63.5950 C   0  0  0  0  0  3  0  0  0  0  0  0
  -54.7460  -35.7580  -62.9240 C   0  0  0  0  0  0  0  0  0  0  0  0
  -54.5190  -34.4100  -62.3710 C   0  0  0  0  0  1  0  0  0  0  0  0
  -53.7300  -36.6490  -62.7840 O   0  0  0  0  0  0  0  0  0  0  0  0
  -54.0770  -37.8490  -63.3780 N   0  0  0  0  0  0  0  0  0  0  0  0
  1 12  1  0  0  0  0
  1 16  1  0  0  0  0
  2 18  1  0  0  0  0
  2  1  2  0  0  0  0
  3  4  1  0  0  0  0
  3  2  1  0  0  0  0
  4 11  1  0  0  0  0
  5  7  1  0  0  0  0
  5  4  2  0  0  0  0
  6  5  1  0  0  0  0
  7  8  2  0  0  0  0
  8  9  1  0  0  0  0
  9 10  1  0  0  0  0
 11  9  2  0  0  0  0
 11 12  1  0  0  0  0
 12 13  2  0  0  0  0
 14  3  1  0  0  0  0
 15 16  1  0  0  0  0
 16 17  2  0  0  0  0
 18 19  2  1  0  0  0
 20 21  1  0  0  0  0
 20 18  1  0  0  0  0
 21 22  1  0  0  0  0
 21 26  2  0  0  0  0
 22 23  2  0  0  0  0
 23 25  1  0  0  0  0
 23 24  1  0  0  0  0
 26 25  1  0  0  0  0
M  END
>  <MODEL>
1

>  <REMARK>
 VINA RESULT:    -6.833      0.000      0.000
 INTER + INTRA:          -9.434
 INTER:                  -8.431
 INTRA:                  -1.003
 UNBOUND:                -1.003
  Name = 
  6 active torsions:
  status: ('A' for Active; 'I' for Inactive)
    1  A    between atoms: C_1  and  C_2
    2  A    between atoms: C_2  and  C_4
    3  A    between atoms: C_5  and  S_6
    4  A    between atoms: S_6  and  C_8
    5  A    between atoms: C_8  and  C_9
    6  A    between atoms: C_11  and  C_12
                            x       y       z     vdW  Elec       q    Type
                         _______ _______ _______ _____ _____    ______ ____

>  <TORSDO>
F 4

$$$$
