REMARK VINA RESULT:    -4.804     14.992     18.262
REMARK INTER + INTRA:          -6.892
REMARK INTER:                  -5.895
REMARK INTRA:                  -0.997
REMARK UNBOUND:                -0.965
REMARK  Name = 
REMARK  6 active torsions:
REMARK  status: ('A' for Active; 'I' for Inactive)
REMARK    1  A    between atoms: C_1  and  C_2
REMARK    2  A    between atoms: C_2  and  C_4
REMARK    3  A    between atoms: C_5  and  S_6
REMARK    4  A    between atoms: S_6  and  C_8
REMARK    5  A    between atoms: C_8  and  C_9
REMARK    6  A    between atoms: C_11  and  C_12
REMARK                            x       y       z     vdW  Elec       q    Type
REMARK                         _______ _______ _______ _____ _____    ______ ____
ROOT
ATOM      1  C   UNL     1     -47.254 -23.892 -64.783  0.00  0.00    +0.000 A 
ATOM      2  C   UNL     1     -46.836 -24.876 -63.953  0.00  0.00    +0.000 A 
ATOM      3  N   UNL     1     -47.616 -25.401 -62.944  0.00  0.00    +0.000 N 
ATOM      4  C   UNL     1     -48.871 -24.871 -62.598  0.00  0.00    +0.000 A 
ATOM      5  C   UNL     1     -49.627 -25.440 -61.553  0.00  0.00    +0.000 A 
ATOM      6 BR   UNL     1     -48.950 -26.897 -60.537  0.00  0.00    +0.000 Br
ATOM      7  C   UNL     1     -50.894 -24.954 -61.236  0.00  0.00    +0.000 A 
ATOM      8  C   UNL     1     -51.422 -23.893 -61.964  0.00  0.00    +0.000 A 
ATOM      9  C   UNL     1     -50.701 -23.326 -63.021  0.00  0.00    +0.000 A 
ATOM     10 CL   UNL     1     -51.487 -22.009 -63.820  0.00  0.00    +0.000 Cl
ATOM     11  C   UNL     1     -49.428 -23.831 -63.359  0.00  0.00    +0.000 A 
ATOM     12  C   UNL     1     -48.611 -23.305 -64.485  0.00  0.00    +0.000 A 
ATOM     13  O   UNL     1     -49.025 -22.362 -65.149  0.00  0.00    +0.000 OA
ATOM     14  H   UNL     1     -47.111 -25.865 -62.189  0.00  0.00    +0.000 HD
ENDROOT
BRANCH   1  16
ATOM     15  C   UNL     1     -45.601 -22.105 -65.702  0.00  0.00    +0.000 C 
ATOM     16  C   UNL     1     -46.453 -23.336 -65.930  0.00  0.00    +0.000 C 
ATOM     17  O   UNL     1     -46.489 -23.837 -67.050  0.00  0.00    +0.000 OA
ENDBRANCH   1  16
BRANCH   2  18
ATOM     18  S   UNL     1     -45.113 -25.491 -64.002  0.00  0.00    +0.000 S 
ATOM     19  O   UNL     1     -44.839 -25.868 -62.571  0.00  0.00    +0.000 OA
BRANCH  18  20
ATOM     20  C   UNL     1     -45.384 -27.063 -64.895  0.00  0.00    +0.000 C 
BRANCH  20  21
ATOM     21  C   UNL     1     -45.542 -28.220 -63.964  0.00  0.00    +0.000 A 
ATOM     22  C   UNL     1     -44.590 -29.199 -63.575  0.00  0.00    +0.000 A 
ATOM     23  C   UNL     1     -45.242 -29.966 -62.641  0.00  0.00    +0.000 A 
ATOM     24  C   UNL     1     -44.872 -31.135 -61.820  0.00  0.00    +0.000 C 
ATOM     25  O   UNL     1     -46.502 -29.483 -62.472  0.00  0.00    +0.000 OA
ATOM     26  N   UNL     1     -46.692 -28.386 -63.294  0.00  0.00    +0.000 NA
ENDBRANCH  20  21
ENDBRANCH  18  20
ENDBRANCH   2  18
TORSDOF 4
