REMARK VINA RESULT:    -6.929     11.355     13.984
REMARK INTER + INTRA:          -9.589
REMARK INTER:                  -8.463
REMARK INTRA:                  -1.127
REMARK UNBOUND:                -0.635
REMARK  Name = 
REMARK  6 active torsions:
REMARK  status: ('A' for Active; 'I' for Inactive)
REMARK    1  A    between atoms: C_1  and  C_2
REMARK    2  A    between atoms: C_4  and  C_5
REMARK    3  A    between atoms: C_5  and  S_6
REMARK    4  A    between atoms: S_6  and  C_8
REMARK    5  A    between atoms: C_20  and  C_21
REMARK    6  A    between atoms: C_21  and  C_23
REMARK                            x       y       z     vdW  Elec       q    Type
REMARK                         _______ _______ _______ _____ _____    ______ ____
ROOT
ATOM      1  C   UNL     1     -54.751 -43.333 -78.200  0.00  0.00    +0.000 A 
ATOM      2  N   UNL     1     -55.008 -44.349 -79.140  0.00  0.00    +0.000 N 
ATOM      3  C   UNL     1     -55.477 -45.624 -78.719  0.00  0.00    +0.000 A 
ATOM      4  C   UNL     1     -56.114 -46.533 -79.584  0.00  0.00    +0.000 A 
ATOM      5 BR   UNL     1     -56.560 -46.043 -81.362  0.00  0.00    +0.000 Br
ATOM      6  C   UNL     1     -56.461 -47.822 -79.155  0.00  0.00    +0.000 A 
ATOM      7  C   UNL     1     -56.196 -48.206 -77.835  0.00  0.00    +0.000 A 
ATOM      8  C   UNL     1     -55.568 -47.322 -76.959  0.00  0.00    +0.000 A 
ATOM      9 CL   UNL     1     -55.352 -47.867 -75.334  0.00  0.00    +0.000 Cl
ATOM     10  C   UNL     1     -55.193 -46.048 -77.411  0.00  0.00    +0.000 A 
ATOM     11  C   UNL     1     -54.449 -45.078 -76.584  0.00  0.00    +0.000 A 
ATOM     12  O   UNL     1     -53.663 -45.440 -75.717  0.00  0.00    +0.000 OA
ATOM     13  C   UNL     1     -54.620 -43.619 -76.885  0.00  0.00    +0.000 A 
ATOM     14  H   UNL     1     -55.482 -43.991 -79.981  0.00  0.00    +0.000 HD
ENDROOT
BRANCH   1  15
ATOM     15  S   UNL     1     -55.069 -41.676 -78.861  0.00  0.00    +0.000 S 
ATOM     16  O   UNL     1     -55.588 -41.926 -80.250  0.00  0.00    +0.000 OA
BRANCH  15  17
ATOM     17  C   UNL     1     -53.499 -40.776 -79.021  0.00  0.00    +0.000 C 
BRANCH  17  21
ATOM     18  C   UNL     1     -49.852 -40.894 -75.428  0.00  0.00    +0.000 C 
ATOM     19  C   UNL     1     -50.946 -40.665 -76.390  0.00  0.00    +0.000 A 
ATOM     20  C   UNL     1     -51.456 -41.363 -77.459  0.00  0.00    +0.000 A 
ATOM     21  C   UNL     1     -52.573 -40.606 -77.877  0.00  0.00    +0.000 A 
ATOM     22  N   UNL     1     -52.683 -39.483 -77.146  0.00  0.00    +0.000 NA
ATOM     23  O   UNL     1     -51.664 -39.526 -76.216  0.00  0.00    +0.000 OA
ENDBRANCH  17  21
ENDBRANCH  15  17
ENDBRANCH   1  15
BRANCH  13  24
ATOM     24  C   UNL     1     -54.786 -42.771 -75.671  0.00  0.00    +0.000 C 
ATOM     25  O   UNL     1     -53.812 -42.340 -75.078  0.00  0.00    +0.000 OA
BRANCH  24  26
ATOM     26  C   UNL     1     -56.149 -42.424 -75.227  0.00  0.00    +0.000 C 
ATOM     27  C   UNL     1     -56.429 -42.258 -73.755  0.00  0.00    +0.000 C 
ATOM     28  C   UNL     1     -57.012 -43.424 -74.494  0.00  0.00    +0.000 C 
ENDBRANCH  24  26
ENDBRANCH  13  24
TORSDOF 5
