REMARK VINA RESULT:    -6.751      3.088      4.522
REMARK INTER + INTRA:          -9.632
REMARK INTER:                  -8.769
REMARK INTRA:                  -0.863
REMARK UNBOUND:                -0.908
REMARK  Name = 
REMARK  6 active torsions:
REMARK  status: ('A' for Active; 'I' for Inactive)
REMARK    1  A    between atoms: C_1  and  C_2
REMARK    2  A    between atoms: C_4  and  C_5
REMARK    3  A    between atoms: C_5  and  S_6
REMARK    4  A    between atoms: S_6  and  C_8
REMARK    5  A    between atoms: C_20  and  C_21
REMARK    6  A    between atoms: C_21  and  C_23
REMARK                            x       y       z     vdW  Elec       q    Type
REMARK                         _______ _______ _______ _____ _____    ______ ____
ROOT
ATOM      1  C   UNL     1     -55.557 -43.243 -77.366  0.00  0.00    +0.000 A 
ATOM      2  N   UNL     1     -54.242 -43.348 -76.872  0.00  0.00    +0.000 N 
ATOM      3  C   UNL     1     -53.434 -42.189 -76.712  0.00  0.00    +0.000 A 
ATOM      4  C   UNL     1     -52.296 -42.155 -75.885  0.00  0.00    +0.000 A 
ATOM      5 BR   UNL     1     -51.852 -43.622 -74.769  0.00  0.00    +0.000 Br
ATOM      6  C   UNL     1     -51.465 -41.026 -75.841  0.00  0.00    +0.000 A 
ATOM      7  C   UNL     1     -51.785 -39.901 -76.610  0.00  0.00    +0.000 A 
ATOM      8  C   UNL     1     -52.909 -39.911 -77.436  0.00  0.00    +0.000 A 
ATOM      9 CL   UNL     1     -53.256 -38.449 -78.288  0.00  0.00    +0.000 Cl
ATOM     10  C   UNL     1     -53.713 -41.060 -77.498  0.00  0.00    +0.000 A 
ATOM     11  C   UNL     1     -54.870 -41.194 -78.404  0.00  0.00    +0.000 A 
ATOM     12  O   UNL     1     -54.912 -40.620 -79.485  0.00  0.00    +0.000 OA
ATOM     13  C   UNL     1     -55.974 -42.126 -78.001  0.00  0.00    +0.000 A 
ATOM     14  H   UNL     1     -54.172 -44.014 -76.090  0.00  0.00    +0.000 HD
ENDROOT
BRANCH   1  15
ATOM     15  S   UNL     1     -56.662 -44.503 -76.676  0.00  0.00    +0.000 S 
ATOM     16  O   UNL     1     -56.856 -44.080 -75.245  0.00  0.00    +0.000 OA
BRANCH  15  17
ATOM     17  C   UNL     1     -55.815 -46.110 -76.658  0.00  0.00    +0.000 C 
BRANCH  17  21
ATOM     18  C   UNL     1     -57.552 -50.841 -77.560  0.00  0.00    +0.000 C 
ATOM     19  C   UNL     1     -57.238 -49.412 -77.378  0.00  0.00    +0.000 A 
ATOM     20  C   UNL     1     -56.199 -48.714 -76.810  0.00  0.00    +0.000 A 
ATOM     21  C   UNL     1     -56.496 -47.358 -77.071  0.00  0.00    +0.000 A 
ATOM     22  N   UNL     1     -57.681 -47.247 -77.697  0.00  0.00    +0.000 NA
ATOM     23  O   UNL     1     -58.139 -48.534 -77.888  0.00  0.00    +0.000 OA
ENDBRANCH  17  21
ENDBRANCH  15  17
ENDBRANCH   1  15
BRANCH  13  24
ATOM     24  C   UNL     1     -57.339 -41.568 -78.221  0.00  0.00    +0.000 C 
ATOM     25  O   UNL     1     -58.004 -41.917 -79.181  0.00  0.00    +0.000 OA
BRANCH  24  26
ATOM     26  C   UNL     1     -57.889 -40.623 -77.230  0.00  0.00    +0.000 C 
ATOM     27  C   UNL     1     -57.217 -40.480 -75.889  0.00  0.00    +0.000 C 
ATOM     28  C   UNL     1     -58.572 -41.113 -75.976  0.00  0.00    +0.000 C 
ENDBRANCH  24  26
ENDBRANCH  13  24
TORSDOF 5
