REMARK VINA RESULT:    -5.711     15.142     16.148
REMARK INTER + INTRA:          -7.717
REMARK INTER:                  -7.043
REMARK INTRA:                  -0.673
REMARK UNBOUND:                -0.670
REMARK  Name = 
REMARK  6 active torsions:
REMARK  status: ('A' for Active; 'I' for Inactive)
REMARK    1  A    between atoms: C_1  and  C_2
REMARK    2  A    between atoms: C_2  and  C_4
REMARK    3  A    between atoms: C_5  and  S_6
REMARK    4  A    between atoms: S_6  and  C_8
REMARK    5  A    between atoms: C_8  and  C_9
REMARK    6  A    between atoms: C_11  and  C_12
REMARK                            x       y       z     vdW  Elec       q    Type
REMARK                         _______ _______ _______ _____ _____    ______ ____
ROOT
ATOM      1  C   UNL     1     -55.573 -42.088 -63.187  0.00  0.00    +0.000 A 
ATOM      2  C   UNL     1     -56.286 -41.261 -62.389  0.00  0.00    +0.000 A 
ATOM      3  N   UNL     1     -56.300 -41.364 -61.011  0.00  0.00    +0.000 N 
ATOM      4  C   UNL     1     -55.682 -42.418 -60.318  0.00  0.00    +0.000 A 
ATOM      5  C   UNL     1     -55.745 -42.498 -58.914  0.00  0.00    +0.000 A 
ATOM      6 BR   UNL     1     -56.741 -41.231 -57.909  0.00  0.00    +0.000 Br
ATOM      7  C   UNL     1     -55.086 -43.510 -58.219  0.00  0.00    +0.000 A 
ATOM      8  C   UNL     1     -54.343 -44.454 -58.922  0.00  0.00    +0.000 A 
ATOM      9  C   UNL     1     -54.248 -44.387 -60.319  0.00  0.00    +0.000 A 
ATOM     10 CL   UNL     1     -53.286 -45.629 -61.042  0.00  0.00    +0.000 Cl
ATOM     11  C   UNL     1     -54.903 -43.357 -61.020  0.00  0.00    +0.000 A 
ATOM     12  C   UNL     1     -54.853 -43.219 -62.501  0.00  0.00    +0.000 A 
ATOM     13  O   UNL     1     -54.267 -44.058 -63.170  0.00  0.00    +0.000 OA
ATOM     14  H   UNL     1     -57.098 -40.933 -60.541  0.00  0.00    +0.000 HD
ENDROOT
BRANCH   1  16
ATOM     15  C   UNL     1     -54.392 -41.142 -65.307  0.00  0.00    +0.000 C 
ATOM     16  C   UNL     1     -55.492 -41.978 -64.689  0.00  0.00    +0.000 C 
ATOM     17  O   UNL     1     -56.308 -42.531 -65.425  0.00  0.00    +0.000 OA
ENDBRANCH   1  16
BRANCH   2  18
ATOM     18  S   UNL     1     -57.443 -40.035 -63.095  0.00  0.00    +0.000 S 
ATOM     19  O   UNL     1     -58.717 -40.816 -63.271  0.00  0.00    +0.000 OA
BRANCH  18  20
ATOM     20  C   UNL     1     -57.701 -38.970 -61.632  0.00  0.00    +0.000 C 
BRANCH  20  21
ATOM     21  C   UNL     1     -58.399 -37.687 -61.955  0.00  0.00    +0.000 A 
ATOM     22  C   UNL     1     -59.786 -37.384 -62.032  0.00  0.00    +0.000 A 
ATOM     23  C   UNL     1     -59.836 -36.038 -62.299  0.00  0.00    +0.000 A 
ATOM     24  C   UNL     1     -60.926 -35.064 -62.508  0.00  0.00    +0.000 C 
ATOM     25  O   UNL     1     -58.571 -35.552 -62.364  0.00  0.00    +0.000 OA
ATOM     26  N   UNL     1     -57.668 -36.577 -62.144  0.00  0.00    +0.000 NA
ENDBRANCH  20  21
ENDBRANCH  18  20
ENDBRANCH   2  18
TORSDOF 4
