REMARK VINA RESULT:    -5.117      3.867      4.734
REMARK INTER + INTRA:          -7.349
REMARK INTER:                  -6.646
REMARK INTRA:                  -0.703
REMARK UNBOUND:                -1.035
REMARK  Name = 
REMARK  6 active torsions:
REMARK  status: ('A' for Active; 'I' for Inactive)
REMARK    1  A    between atoms: C_1  and  C_2
REMARK    2  A    between atoms: C_2  and  C_4
REMARK    3  A    between atoms: C_5  and  S_6
REMARK    4  A    between atoms: S_6  and  C_8
REMARK    5  A    between atoms: C_8  and  C_9
REMARK    6  A    between atoms: C_11  and  C_12
REMARK                            x       y       z     vdW  Elec       q    Type
REMARK                         _______ _______ _______ _____ _____    ______ ____
ROOT
ATOM      1  C   UNL     1     -59.071 -39.612 -62.207  0.00  0.00    +0.000 A 
ATOM      2  C   UNL     1     -58.285 -38.512 -62.133  0.00  0.00    +0.000 A 
ATOM      3  N   UNL     1     -57.048 -38.484 -62.742  0.00  0.00    +0.000 N 
ATOM      4  C   UNL     1     -56.526 -39.534 -63.503  0.00  0.00    +0.000 A 
ATOM      5  C   UNL     1     -55.252 -39.447 -64.091  0.00  0.00    +0.000 A 
ATOM      6 BR   UNL     1     -54.227 -37.852 -63.966  0.00  0.00    +0.000 Br
ATOM      7  C   UNL     1     -54.701 -40.520 -64.790  0.00  0.00    +0.000 A 
ATOM      8  C   UNL     1     -55.415 -41.712 -64.899  0.00  0.00    +0.000 A 
ATOM      9  C   UNL     1     -56.678 -41.831 -64.321  0.00  0.00    +0.000 A 
ATOM     10 CL   UNL     1     -57.438 -43.375 -64.513  0.00  0.00    +0.000 Cl
ATOM     11  C   UNL     1     -57.228 -40.735 -63.625  0.00  0.00    +0.000 A 
ATOM     12  C   UNL     1     -58.576 -40.770 -63.031  0.00  0.00    +0.000 A 
ATOM     13  O   UNL     1     -59.280 -41.743 -63.266  0.00  0.00    +0.000 OA
ATOM     14  H   UNL     1     -56.616 -37.574 -62.831  0.00  0.00    +0.000 HD
ENDROOT
BRANCH   1  16
ATOM     15  C   UNL     1     -61.597 -39.237 -62.478  0.00  0.00    +0.000 C 
ATOM     16  C   UNL     1     -60.442 -39.754 -61.627  0.00  0.00    +0.000 C 
ATOM     17  O   UNL     1     -60.621 -40.242 -60.543  0.00  0.00    +0.000 OA
ENDBRANCH   1  16
BRANCH   2  18
ATOM     18  S   UNL     1     -58.727 -37.011 -61.162  0.00  0.00    +0.000 S 
ATOM     19  O   UNL     1     -58.290 -37.353 -59.763  0.00  0.00    +0.000 OA
BRANCH  18  20
ATOM     20  C   UNL     1     -57.528 -35.732 -61.766  0.00  0.00    +0.000 C 
BRANCH  20  21
ATOM     21  C   UNL     1     -58.212 -34.548 -62.359  0.00  0.00    +0.000 A 
ATOM     22  C   UNL     1     -57.708 -33.244 -62.581  0.00  0.00    +0.000 A 
ATOM     23  C   UNL     1     -58.777 -32.549 -63.084  0.00  0.00    +0.000 A 
ATOM     24  C   UNL     1     -58.989 -31.154 -63.499  0.00  0.00    +0.000 C 
ATOM     25  O   UNL     1     -59.848 -33.379 -63.191  0.00  0.00    +0.000 OA
ATOM     26  N   UNL     1     -59.491 -34.643 -62.760  0.00  0.00    +0.000 NA
ENDBRANCH  20  21
ENDBRANCH  18  20
ENDBRANCH   2  18
TORSDOF 4
