REMARK VINA RESULT:    -6.174     13.147     15.431
REMARK INTER + INTRA:          -8.977
REMARK INTER:                  -8.411
REMARK INTRA:                  -0.566
REMARK UNBOUND:                -0.998
REMARK  Name = 
REMARK  6 active torsions:
REMARK  status: ('A' for Active; 'I' for Inactive)
REMARK    1  A    between atoms: C_1  and  C_2
REMARK    2  A    between atoms: C_4  and  C_5
REMARK    3  A    between atoms: C_5  and  S_6
REMARK    4  A    between atoms: S_6  and  C_8
REMARK    5  A    between atoms: C_20  and  C_21
REMARK    6  A    between atoms: C_21  and  C_23
REMARK                            x       y       z     vdW  Elec       q    Type
REMARK                         _______ _______ _______ _____ _____    ______ ____
ROOT
ATOM      1  C   UNL     1     -53.810 -42.117 -78.485  0.00  0.00    +0.000 A 
ATOM      2  N   UNL     1     -55.073 -42.727 -78.608  0.00  0.00    +0.000 N 
ATOM      3  C   UNL     1     -56.001 -42.693 -77.531  0.00  0.00    +0.000 A 
ATOM      4  C   UNL     1     -57.380 -42.920 -77.698  0.00  0.00    +0.000 A 
ATOM      5 BR   UNL     1     -58.138 -43.116 -79.426  0.00  0.00    +0.000 Br
ATOM      6  C   UNL     1     -58.243 -42.986 -76.595  0.00  0.00    +0.000 A 
ATOM      7  C   UNL     1     -57.734 -42.796 -75.306  0.00  0.00    +0.000 A 
ATOM      8  C   UNL     1     -56.371 -42.567 -75.115  0.00  0.00    +0.000 A 
ATOM      9 CL   UNL     1     -55.856 -42.273 -73.494  0.00  0.00    +0.000 Cl
ATOM     10  C   UNL     1     -55.512 -42.539 -76.224  0.00  0.00    +0.000 A 
ATOM     11  C   UNL     1     -54.048 -42.389 -76.115  0.00  0.00    +0.000 A 
ATOM     12  O   UNL     1     -53.429 -42.802 -75.142  0.00  0.00    +0.000 OA
ATOM     13  C   UNL     1     -53.315 -41.781 -77.273  0.00  0.00    +0.000 A 
ATOM     14  H   UNL     1     -55.500 -42.556 -79.529  0.00  0.00    +0.000 HD
ENDROOT
BRANCH   1  15
ATOM     15  S   UNL     1     -53.197 -41.462 -80.060  0.00  0.00    +0.000 S 
ATOM     16  O   UNL     1     -53.641 -40.025 -80.060  0.00  0.00    +0.000 OA
BRANCH  15  17
ATOM     17  C   UNL     1     -54.045 -42.294 -81.434  0.00  0.00    +0.000 C 
BRANCH  17  21
ATOM     18  C   UNL     1     -57.367 -39.610 -84.258  0.00  0.00    +0.000 C 
ATOM     19  C   UNL     1     -56.267 -40.334 -83.594  0.00  0.00    +0.000 A 
ATOM     20  C   UNL     1     -56.128 -40.995 -82.397  0.00  0.00    +0.000 A 
ATOM     21  C   UNL     1     -54.827 -41.542 -82.442  0.00  0.00    +0.000 A 
ATOM     22  N   UNL     1     -54.198 -41.170 -83.571  0.00  0.00    +0.000 NA
ATOM     23  O   UNL     1     -55.104 -40.416 -84.288  0.00  0.00    +0.000 OA
ENDBRANCH  17  21
ENDBRANCH  15  17
ENDBRANCH   1  15
BRANCH  13  24
ATOM     24  C   UNL     1     -52.284 -40.782 -76.872  0.00  0.00    +0.000 C 
ATOM     25  O   UNL     1     -52.600 -39.631 -76.622  0.00  0.00    +0.000 OA
BRANCH  24  26
ATOM     26  C   UNL     1     -50.882 -41.221 -76.737  0.00  0.00    +0.000 C 
ATOM     27  C   UNL     1     -50.294 -41.411 -75.362  0.00  0.00    +0.000 C 
ATOM     28  C   UNL     1     -49.814 -40.284 -76.226  0.00  0.00    +0.000 C 
ENDBRANCH  24  26
ENDBRANCH  13  24
TORSDOF 5
