REMARK VINA RESULT:    -5.791     12.393     15.207
REMARK INTER + INTRA:          -8.481
REMARK INTER:                  -7.708
REMARK INTRA:                  -0.773
REMARK UNBOUND:                -0.997
REMARK  Name = 
REMARK  8 active torsions:
REMARK  status: ('A' for Active; 'I' for Inactive)
REMARK    1  A    between atoms: C_1  and  C_2
REMARK    2  A    between atoms: C_4  and  C_5
REMARK    3  A    between atoms: C_5  and  S_6
REMARK    4  A    between atoms: S_6  and  C_8
REMARK    5  A    between atoms: C_20  and  C_21
REMARK    6  A    between atoms: C_21  and  C_23
REMARK    7  A    between atoms: C_23  and  C_24
REMARK    8  A    between atoms: C_23  and  C_25
REMARK                            x       y       z     vdW  Elec       q    Type
REMARK                         _______ _______ _______ _____ _____    ______ ____
ROOT
ATOM      1  C   UNL     1     -56.642 -40.883 -61.418  0.00  0.00    +0.000 A 
ATOM      2  N   UNL     1     -56.698 -41.569 -60.207  0.00  0.00    +0.000 N 
ATOM      3  C   UNL     1     -55.767 -42.579 -59.884  0.00  0.00    +0.000 A 
ATOM      4  C   UNL     1     -55.557 -43.006 -58.558  0.00  0.00    +0.000 A 
ATOM      5 CL   UNL     1     -56.319 -42.193 -57.238  0.00  0.00    +0.000 Cl
ATOM      6  C   UNL     1     -54.709 -44.077 -58.273  0.00  0.00    +0.000 A 
ATOM      7  C   UNL     1     -54.055 -44.735 -59.317  0.00  0.00    +0.000 A 
ATOM      8  C   UNL     1     -54.239 -44.316 -60.641  0.00  0.00    +0.000 A 
ATOM      9 CL   UNL     1     -53.327 -45.163 -61.835  0.00  0.00    +0.000 Cl
ATOM     10  C   UNL     1     -55.104 -43.247 -60.923  0.00  0.00    +0.000 A 
ATOM     11  C   UNL     1     -55.437 -42.770 -62.289  0.00  0.00    +0.000 A 
ATOM     12  O   UNL     1     -55.383 -43.556 -63.227  0.00  0.00    +0.000 OA
ATOM     13  C   UNL     1     -55.923 -41.339 -62.482  0.00  0.00    +0.000 A 
ATOM     14  H   UNL     1     -57.007 -40.986 -59.418  0.00  0.00    +0.000 HD
ENDROOT
BRANCH   1  15
ATOM     15  S   UNL     1     -57.431 -39.228 -61.280  0.00  0.00    +0.000 S 
ATOM     16  O   UNL     1     -58.267 -39.127 -62.527  0.00  0.00    +0.000 OA
BRANCH  15  17
ATOM     17  C   UNL     1     -56.008 -38.080 -61.476  0.00  0.00    +0.000 C 
BRANCH  17  21
ATOM     18  C   UNL     1     -58.146 -33.598 -62.917  0.00  0.00    +0.000 C 
ATOM     19  C   UNL     1     -57.352 -34.789 -62.548  0.00  0.00    +0.000 A 
ATOM     20  C   UNL     1     -57.623 -35.990 -61.934  0.00  0.00    +0.000 A 
ATOM     21  C   UNL     1     -56.388 -36.697 -61.943  0.00  0.00    +0.000 A 
ATOM     22  N   UNL     1     -55.431 -35.938 -62.503  0.00  0.00    +0.000 NA
ATOM     23  O   UNL     1     -56.037 -34.756 -62.883  0.00  0.00    +0.000 OA
ENDBRANCH  17  21
ENDBRANCH  15  17
ENDBRANCH   1  15
BRANCH  13  24
ATOM     24  C   UNL     1     -55.505 -40.698 -63.790  0.00  0.00    +0.000 C 
ATOM     25  O   UNL     1     -56.296 -40.670 -64.742  0.00  0.00    +0.000 OA
BRANCH  24  26
ATOM     26  C   UNL     1     -54.089 -40.214 -64.038  0.00  0.00    +0.000 C 
ATOM     27  C   UNL     1     -53.422 -41.092 -65.080  0.00  0.00    +0.000 C 
ATOM     28  C   UNL     1     -54.053 -38.729 -64.379  0.00  0.00    +0.000 C 
ENDBRANCH  24  26
ENDBRANCH  13  24
TORSDOF 5
