REMARK VINA RESULT:    -6.346     12.047     13.622
REMARK INTER + INTRA:          -9.077
REMARK INTER:                  -8.339
REMARK INTRA:                  -0.738
REMARK UNBOUND:                -0.876
REMARK  Name = 
REMARK  6 active torsions:
REMARK  status: ('A' for Active; 'I' for Inactive)
REMARK    1  A    between atoms: C_1  and  C_2
REMARK    2  A    between atoms: C_4  and  C_5
REMARK    3  A    between atoms: C_5  and  S_6
REMARK    4  A    between atoms: S_6  and  C_8
REMARK    5  A    between atoms: C_20  and  C_21
REMARK    6  A    between atoms: C_21  and  C_23
REMARK                            x       y       z     vdW  Elec       q    Type
REMARK                         _______ _______ _______ _____ _____    ______ ____
ROOT
ATOM      1  C   UNL     1     -55.665 -41.117 -62.881  0.00  0.00    +0.000 A 
ATOM      2  N   UNL     1     -54.356 -40.812 -63.301  0.00  0.00    +0.000 N 
ATOM      3  C   UNL     1     -53.425 -41.850 -63.582  0.00  0.00    +0.000 A 
ATOM      4  C   UNL     1     -52.268 -41.654 -64.359  0.00  0.00    +0.000 A 
ATOM      5 BR   UNL     1     -51.953 -40.010 -65.249  0.00  0.00    +0.000 Br
ATOM      6  C   UNL     1     -51.321 -42.676 -64.519  0.00  0.00    +0.000 A 
ATOM      7  C   UNL     1     -51.539 -43.922 -63.921  0.00  0.00    +0.000 A 
ATOM      8  C   UNL     1     -52.680 -44.140 -63.149  0.00  0.00    +0.000 A 
ATOM      9 CL   UNL     1     -52.892 -45.733 -62.515  0.00  0.00    +0.000 Cl
ATOM     10  C   UNL     1     -53.602 -43.099 -62.966  0.00  0.00    +0.000 A 
ATOM     11  C   UNL     1     -54.791 -43.209 -62.099  0.00  0.00    +0.000 A 
ATOM     12  O   UNL     1     -54.802 -43.927 -61.107  0.00  0.00    +0.000 OA
ATOM     13  C   UNL     1     -55.977 -42.348 -62.419  0.00  0.00    +0.000 A 
ATOM     14  H   UNL     1     -54.336 -40.042 -63.984  0.00  0.00    +0.000 HD
ENDROOT
BRANCH   1  15
ATOM     15  S   UNL     1     -56.879 -39.894 -63.441  0.00  0.00    +0.000 S 
ATOM     16  O   UNL     1     -56.103 -39.002 -64.372  0.00  0.00    +0.000 OA
BRANCH  15  17
ATOM     17  C   UNL     1     -57.411 -38.878 -62.032  0.00  0.00    +0.000 C 
BRANCH  17  21
ATOM     18  C   UNL     1     -61.045 -35.285 -62.339  0.00  0.00    +0.000 C 
ATOM     19  C   UNL     1     -60.156 -36.459 -62.285  0.00  0.00    +0.000 A 
ATOM     20  C   UNL     1     -58.797 -36.639 -62.176  0.00  0.00    +0.000 A 
ATOM     21  C   UNL     1     -58.630 -38.039 -62.088  0.00  0.00    +0.000 A 
ATOM     22  N   UNL     1     -59.814 -38.664 -62.208  0.00  0.00    +0.000 NA
ATOM     23  O   UNL     1     -60.765 -37.671 -62.330  0.00  0.00    +0.000 OA
ENDBRANCH  17  21
ENDBRANCH  15  17
ENDBRANCH   1  15
BRANCH  13  24
ATOM     24  C   UNL     1     -57.280 -43.067 -62.332  0.00  0.00    +0.000 C 
ATOM     25  O   UNL     1     -57.937 -43.037 -61.306  0.00  0.00    +0.000 OA
BRANCH  24  26
ATOM     26  C   UNL     1     -57.783 -43.775 -63.524  0.00  0.00    +0.000 C 
ATOM     27  C   UNL     1     -57.131 -43.530 -64.861  0.00  0.00    +0.000 C 
ATOM     28  C   UNL     1     -58.526 -43.040 -64.615  0.00  0.00    +0.000 C 
ENDBRANCH  24  26
ENDBRANCH  13  24
TORSDOF 5
