REMARK VINA RESULT:    -5.380      4.661      6.770
REMARK INTER + INTRA:          -7.844
REMARK INTER:                  -6.718
REMARK INTRA:                  -1.126
REMARK UNBOUND:                -0.891
REMARK  Name = 
REMARK  6 active torsions:
REMARK  status: ('A' for Active; 'I' for Inactive)
REMARK    1  A    between atoms: C_1  and  C_2
REMARK    2  A    between atoms: C_4  and  C_5
REMARK    3  A    between atoms: C_5  and  S_6
REMARK    4  A    between atoms: S_6  and  C_8
REMARK    5  A    between atoms: C_20  and  C_21
REMARK    6  A    between atoms: C_21  and  C_23
REMARK                            x       y       z     vdW  Elec       q    Type
REMARK                         _______ _______ _______ _____ _____    ______ ____
ROOT
ATOM      1  C   UNL     1     -58.712 -44.860 -77.896  0.00  0.00    +0.000 A 
ATOM      2  N   UNL     1     -58.602 -46.232 -78.196  0.00  0.00    +0.000 N 
ATOM      3  C   UNL     1     -57.585 -47.025 -77.597  0.00  0.00    +0.000 A 
ATOM      4  C   UNL     1     -57.644 -48.429 -77.534  0.00  0.00    +0.000 A 
ATOM      5 BR   UNL     1     -59.193 -49.371 -78.093  0.00  0.00    +0.000 Br
ATOM      6  C   UNL     1     -56.569 -49.178 -77.034  0.00  0.00    +0.000 A 
ATOM      7  C   UNL     1     -55.427 -48.521 -76.563  0.00  0.00    +0.000 A 
ATOM      8  C   UNL     1     -55.347 -47.129 -76.614  0.00  0.00    +0.000 A 
ATOM      9 CL   UNL     1     -53.927 -46.412 -75.942  0.00  0.00    +0.000 Cl
ATOM     10  C   UNL     1     -56.414 -46.393 -77.150  0.00  0.00    +0.000 A 
ATOM     11  C   UNL     1     -56.385 -44.928 -77.323  0.00  0.00    +0.000 A 
ATOM     12  O   UNL     1     -55.340 -44.324 -77.534  0.00  0.00    +0.000 OA
ATOM     13  C   UNL     1     -57.692 -44.192 -77.314  0.00  0.00    +0.000 A 
ATOM     14  H   UNL     1     -59.520 -46.696 -78.236  0.00  0.00    +0.000 HD
ENDROOT
BRANCH   1  15
ATOM     15  S   UNL     1     -60.425 -44.271 -77.950  0.00  0.00    +0.000 S 
ATOM     16  O   UNL     1     -61.248 -45.504 -77.700  0.00  0.00    +0.000 OA
BRANCH  15  17
ATOM     17  C   UNL     1     -60.813 -43.689 -79.627  0.00  0.00    +0.000 C 
BRANCH  17  21
ATOM     18  C   UNL     1     -57.262 -41.171 -82.324  0.00  0.00    +0.000 C 
ATOM     19  C   UNL     1     -58.405 -41.722 -81.572  0.00  0.00    +0.000 A 
ATOM     20  C   UNL     1     -58.692 -42.941 -81.004  0.00  0.00    +0.000 A 
ATOM     21  C   UNL     1     -59.930 -42.747 -80.353  0.00  0.00    +0.000 A 
ATOM     22  N   UNL     1     -60.392 -41.505 -80.579  0.00  0.00    +0.000 NA
ATOM     23  O   UNL     1     -59.434 -40.868 -81.340  0.00  0.00    +0.000 OA
ENDBRANCH  17  21
ENDBRANCH  15  17
ENDBRANCH   1  15
BRANCH  13  24
ATOM     24  C   UNL     1     -57.667 -42.935 -76.512  0.00  0.00    +0.000 C 
ATOM     25  O   UNL     1     -57.709 -42.976 -75.295  0.00  0.00    +0.000 OA
BRANCH  24  26
ATOM     26  C   UNL     1     -57.542 -41.645 -77.217  0.00  0.00    +0.000 C 
ATOM     27  C   UNL     1     -57.613 -40.362 -76.430  0.00  0.00    +0.000 C 
ATOM     28  C   UNL     1     -58.725 -40.719 -77.369  0.00  0.00    +0.000 C 
ENDBRANCH  24  26
ENDBRANCH  13  24
TORSDOF 5
