REMARK VINA RESULT:    -5.428      9.521     12.861
REMARK INTER + INTRA:          -7.925
REMARK INTER:                  -7.006
REMARK INTRA:                  -0.919
REMARK UNBOUND:                -0.911
REMARK  Name = 
REMARK  6 active torsions:
REMARK  status: ('A' for Active; 'I' for Inactive)
REMARK    1  A    between atoms: C_1  and  C_2
REMARK    2  A    between atoms: C_4  and  C_5
REMARK    3  A    between atoms: C_5  and  S_6
REMARK    4  A    between atoms: S_6  and  C_8
REMARK    5  A    between atoms: C_20  and  C_21
REMARK    6  A    between atoms: C_21  and  C_23
REMARK                            x       y       z     vdW  Elec       q    Type
REMARK                         _______ _______ _______ _____ _____    ______ ____
ROOT
ATOM      1  C   UNL     1     -65.399 -41.404 -69.991  0.00  0.00    +0.000 A 
ATOM      2  N   UNL     1     -66.726 -41.428 -69.519  0.00  0.00    +0.000 N 
ATOM      3  C   UNL     1     -67.073 -40.776 -68.303  0.00  0.00    +0.000 A 
ATOM      4  C   UNL     1     -68.394 -40.423 -67.971  0.00  0.00    +0.000 A 
ATOM      5 BR   UNL     1     -69.807 -40.633 -69.219  0.00  0.00    +0.000 Br
ATOM      6  C   UNL     1     -68.707 -39.881 -66.716  0.00  0.00    +0.000 A 
ATOM      7  C   UNL     1     -67.686 -39.661 -65.784  0.00  0.00    +0.000 A 
ATOM      8  C   UNL     1     -66.369 -40.001 -66.091  0.00  0.00    +0.000 A 
ATOM      9 CL   UNL     1     -65.175 -39.623 -64.902  0.00  0.00    +0.000 Cl
ATOM     10  C   UNL     1     -66.074 -40.576 -67.337  0.00  0.00    +0.000 A 
ATOM     11  C   UNL     1     -64.728 -41.046 -67.717  0.00  0.00    +0.000 A 
ATOM     12  O   UNL     1     -63.935 -41.470 -66.887  0.00  0.00    +0.000 OA
ATOM     13  C   UNL     1     -64.376 -41.066 -69.176  0.00  0.00    +0.000 A 
ATOM     14  H   UNL     1     -67.411 -41.288 -70.274  0.00  0.00    +0.000 HD
ENDROOT
BRANCH   1  15
ATOM     15  S   UNL     1     -65.305 -41.420 -71.801  0.00  0.00    +0.000 S 
ATOM     16  O   UNL     1     -66.702 -41.086 -72.247  0.00  0.00    +0.000 OA
BRANCH  15  17
ATOM     17  C   UNL     1     -64.939 -43.105 -72.374  0.00  0.00    +0.000 C 
BRANCH  17  21
ATOM     18  C   UNL     1     -62.396 -44.190 -76.684  0.00  0.00    +0.000 C 
ATOM     19  C   UNL     1     -62.947 -43.787 -75.377  0.00  0.00    +0.000 A 
ATOM     20  C   UNL     1     -64.191 -43.840 -74.794  0.00  0.00    +0.000 A 
ATOM     21  C   UNL     1     -63.987 -43.366 -73.479  0.00  0.00    +0.000 A 
ATOM     22  N   UNL     1     -62.710 -42.984 -73.308  0.00  0.00    +0.000 NA
ATOM     23  O   UNL     1     -62.064 -43.251 -74.497  0.00  0.00    +0.000 OA
ENDBRANCH  17  21
ENDBRANCH  15  17
ENDBRANCH   1  15
BRANCH  13  24
ATOM     24  C   UNL     1     -63.012 -40.544 -69.470  0.00  0.00    +0.000 C 
ATOM     25  O   UNL     1     -62.740 -39.373 -69.267  0.00  0.00    +0.000 OA
BRANCH  24  26
ATOM     26  C   UNL     1     -61.984 -41.478 -69.967  0.00  0.00    +0.000 C 
ATOM     27  C   UNL     1     -62.161 -42.959 -69.749  0.00  0.00    +0.000 C 
ATOM     28  C   UNL     1     -61.080 -42.225 -69.016  0.00  0.00    +0.000 C 
ENDBRANCH  24  26
ENDBRANCH  13  24
TORSDOF 5
