=
 OpenBabel09162514313D

 28 30  0  0  0  0  0  0  0  0999 V2000
  -55.6040  -41.8220  -62.8630 C   0  0  0  0  0  0  0  0  0  0  0  0
  -54.8870  -43.0120  -62.9400 N   0  0  0  0  0  0  0  0  0  0  0  0
  -53.5320  -43.0340  -63.3250 C   0  0  0  0  0  0  0  0  0  0  0  0
  -52.6840  -44.1150  -63.0190 C   0  0  0  0  0  0  0  0  0  0  0  0
  -53.2790  -45.5420  -61.9210 Br  0  0  0  0  0  0  0  0  0  0  0  0
  -51.3650  -44.1470  -63.4820 C   0  0  0  0  0  3  0  0  0  0  0  0
  -50.8740  -43.0970  -64.2520 C   0  0  0  0  0  3  0  0  0  0  0  0
  -51.7030  -42.0040  -64.5620 C   0  0  0  0  0  0  0  0  0  0  0  0
  -50.9610  -40.7300  -65.4620 Cl  0  0  0  0  0  0  0  0  0  0  0  0
  -53.0350  -41.9750  -64.1020 C   0  0  0  0  0  0  0  0  0  0  0  0
  -53.9990  -40.8840  -64.4030 C   0  0  0  0  0  0  0  0  0  0  0  0
  -53.8400  -40.1790  -65.3950 O   0  0  0  0  0  0  0  0  0  0  0  0
  -55.1880  -40.6840  -63.4670 C   0  0  0  0  0  0  0  0  0  0  0  0
  -55.1700  -43.7150  -62.2440 H   0  0  0  0  0  0  0  0  0  0  0  0
  -57.0080  -41.9580  -61.6930 S   0  0  2  0  0  0  0  0  0  0  0  0
  -56.4290  -42.7030  -60.5210 O   0  0  0  0  0  0  0  0  0  0  0  0
  -58.1720  -43.0640  -62.5620 C   0  0  0  0  0  2  0  0  0  0  0  0
  -58.0150  -42.8770  -67.7330 C   0  0  0  0  0  1  0  0  0  0  0  0
  -58.1900  -42.7700  -66.2680 C   0  0  0  0  0  0  0  0  0  0  0  0
  -57.7950  -43.5170  -65.1820 C   0  0  0  0  0  3  0  0  0  0  0  0
  -58.2880  -42.8120  -64.0470 C   0  0  0  0  0  0  0  0  0  0  0  0
  -58.9570  -41.7170  -64.4470 N   0  0  0  0  0  0  0  0  0  0  0  0
  -58.8900  -41.6940  -65.8270 O   0  0  0  0  0  0  0  0  0  0  0  0
  -55.7010  -39.2690  -63.3150 C   0  0  0  0  0  0  0  0  0  0  0  0
  -56.8920  -39.0200  -63.5000 O   0  0  0  0  0  0  0  0  0  0  0  0
  -54.7360  -38.1270  -62.9950 C   0  0  0  0  0  3  0  0  0  0  0  0
  -54.7910  -37.0270  -64.0520 C   0  0  0  0  0  1  0  0  0  0  0  0
  -54.9850  -37.5400  -61.6040 C   0  0  0  0  0  1  0  0  0  0  0  0
  1 15  1  0  0  0  0
  2  1  1  0  0  0  0
  2 14  1  0  0  0  0
  3  4  1  0  0  0  0
  3  2  1  0  0  0  0
  4  5  1  0  0  0  0
  6  4  2  0  0  0  0
  7  6  1  0  0  0  0
  8  7  2  0  0  0  0
  8 10  1  0  0  0  0
  9  8  1  0  0  0  0
 10  3  2  0  0  0  0
 11 10  1  0  0  0  0
 11 13  1  0  0  0  0
 12 11  2  0  0  0  0
 13 24  1  0  0  0  0
 13  1  2  0  0  0  0
 15 16  2  1  0  0  0
 17 15  1  0  0  0  0
 18 19  1  0  0  0  0
 19 23  1  0  0  0  0
 19 20  2  0  0  0  0
 20 21  1  0  0  0  0
 21 17  1  0  0  0  0
 22 21  2  0  0  0  0
 23 22  1  0  0  0  0
 24 26  1  0  0  0  0
 25 24  2  0  0  0  0
 26 28  1  0  0  0  0
 27 26  1  0  0  0  0
M  END
>  <MODEL>
1

>  <REMARK>
 VINA RESULT:    -7.260      0.000      0.000
 INTER + INTRA:         -10.424
 INTER:                  -9.382
 INTRA:                  -1.042
 UNBOUND:                -1.042
  Name = 
  8 active torsions:
  status: ('A' for Active; 'I' for Inactive)
    1  A    between atoms: C_1  and  C_2
    2  A    between atoms: C_4  and  C_5
    3  A    between atoms: C_5  and  S_6
    4  A    between atoms: S_6  and  C_8
    5  A    between atoms: C_20  and  C_21
    6  A    between atoms: C_21  and  C_23
    7  A    between atoms: C_23  and  C_24
    8  A    between atoms: C_23  and  C_25
                            x       y       z     vdW  Elec       q    Type
                         _______ _______ _______ _____ _____    ______ ____

>  <TORSDO>
F 5

$$$$
