REMARK VINA RESULT:    -6.603      3.800      6.328
REMARK INTER + INTRA:          -8.814
REMARK INTER:                  -8.142
REMARK INTRA:                  -0.672
REMARK UNBOUND:                -0.667
REMARK  Name = 
REMARK  6 active torsions:
REMARK  status: ('A' for Active; 'I' for Inactive)
REMARK    1  A    between atoms: C_1  and  C_2
REMARK    2  A    between atoms: C_2  and  C_4
REMARK    3  A    between atoms: C_5  and  S_6
REMARK    4  A    between atoms: S_6  and  C_8
REMARK    5  A    between atoms: C_8  and  C_9
REMARK    6  A    between atoms: C_11  and  C_12
REMARK                            x       y       z     vdW  Elec       q    Type
REMARK                         _______ _______ _______ _____ _____    ______ ____
ROOT
ATOM      1  C   UNL     1     -56.663 -41.992 -62.846  0.00  0.00    +0.000 A 
ATOM      2  C   UNL     1     -55.561 -42.655 -62.429  0.00  0.00    +0.000 A 
ATOM      3  N   UNL     1     -55.315 -42.957 -61.103  0.00  0.00    +0.000 N 
ATOM      4  C   UNL     1     -56.139 -42.519 -60.053  0.00  0.00    +0.000 A 
ATOM      5  C   UNL     1     -55.870 -42.888 -58.721  0.00  0.00    +0.000 A 
ATOM      6 BR   UNL     1     -54.345 -43.936 -58.287  0.00  0.00    +0.000 Br
ATOM      7  C   UNL     1     -56.715 -42.501 -57.683  0.00  0.00    +0.000 A 
ATOM      8  C   UNL     1     -57.847 -41.744 -57.965  0.00  0.00    +0.000 A 
ATOM      9  C   UNL     1     -58.153 -41.387 -59.283  0.00  0.00    +0.000 A 
ATOM     10 CL   UNL     1     -59.595 -40.452 -59.476  0.00  0.00    +0.000 Cl
ATOM     11  C   UNL     1     -57.309 -41.793 -60.338  0.00  0.00    +0.000 A 
ATOM     12  C   UNL     1     -57.571 -41.467 -61.766  0.00  0.00    +0.000 A 
ATOM     13  O   UNL     1     -58.499 -40.726 -62.067  0.00  0.00    +0.000 OA
ATOM     14  H   UNL     1     -54.339 -43.136 -60.861  0.00  0.00    +0.000 HD
ENDROOT
BRANCH   1  16
ATOM     15  C   UNL     1     -56.613 -40.388 -64.888  0.00  0.00    +0.000 C 
ATOM     16  C   UNL     1     -57.006 -41.718 -64.285  0.00  0.00    +0.000 C 
ATOM     17  O   UNL     1     -57.623 -42.531 -64.972  0.00  0.00    +0.000 OA
ENDBRANCH   1  16
BRANCH   2  18
ATOM     18  S   UNL     1     -54.206 -43.055 -63.583  0.00  0.00    +0.000 S 
ATOM     19  O   UNL     1     -53.506 -41.734 -63.769  0.00  0.00    +0.000 OA
BRANCH  18  20
ATOM     20  C   UNL     1     -53.140 -44.039 -62.471  0.00  0.00    +0.000 C 
BRANCH  20  21
ATOM     21  C   UNL     1     -52.093 -44.787 -63.231  0.00  0.00    +0.000 A 
ATOM     22  C   UNL     1     -50.976 -44.283 -63.950  0.00  0.00    +0.000 A 
ATOM     23  C   UNL     1     -50.311 -45.401 -64.384  0.00  0.00    +0.000 A 
ATOM     24  C   UNL     1     -49.080 -45.633 -65.163  0.00  0.00    +0.000 C 
ATOM     25  O   UNL     1     -50.977 -46.505 -63.957  0.00  0.00    +0.000 OA
ATOM     26  N   UNL     1     -52.092 -46.126 -63.231  0.00  0.00    +0.000 NA
ENDBRANCH  20  21
ENDBRANCH  18  20
ENDBRANCH   2  18
TORSDOF 4
