REMARK VINA RESULT:    -5.466      3.698      4.636
REMARK INTER + INTRA:          -7.825
REMARK INTER:                  -6.798
REMARK INTRA:                  -1.028
REMARK UNBOUND:                -1.082
REMARK  Name = 
REMARK  6 active torsions:
REMARK  status: ('A' for Active; 'I' for Inactive)
REMARK    1  A    between atoms: C_1  and  C_2
REMARK    2  A    between atoms: C_2  and  C_4
REMARK    3  A    between atoms: C_5  and  S_6
REMARK    4  A    between atoms: S_6  and  C_8
REMARK    5  A    between atoms: C_8  and  C_9
REMARK    6  A    between atoms: C_11  and  C_12
REMARK                            x       y       z     vdW  Elec       q    Type
REMARK                         _______ _______ _______ _____ _____    ______ ____
ROOT
ATOM      1  C   UNL     1     -57.929 -40.950 -59.777  0.00  0.00    +0.000 A 
ATOM      2  C   UNL     1     -57.542 -41.158 -61.055  0.00  0.00    +0.000 A 
ATOM      3  N   UNL     1     -56.568 -42.067 -61.418  0.00  0.00    +0.000 N 
ATOM      4  C   UNL     1     -55.781 -42.753 -60.479  0.00  0.00    +0.000 A 
ATOM      5  C   UNL     1     -54.767 -43.636 -60.898  0.00  0.00    +0.000 A 
ATOM      6 BR   UNL     1     -54.370 -43.862 -62.743  0.00  0.00    +0.000 Br
ATOM      7  C   UNL     1     -54.020 -44.361 -59.975  0.00  0.00    +0.000 A 
ATOM      8  C   UNL     1     -54.286 -44.222 -58.616  0.00  0.00    +0.000 A 
ATOM      9  C   UNL     1     -55.305 -43.368 -58.174  0.00  0.00    +0.000 A 
ATOM     10 CL   UNL     1     -55.507 -43.294 -56.458  0.00  0.00    +0.000 Cl
ATOM     11  C   UNL     1     -56.070 -42.642 -59.108  0.00  0.00    +0.000 A 
ATOM     12  C   UNL     1     -57.171 -41.716 -58.721  0.00  0.00    +0.000 A 
ATOM     13  O   UNL     1     -57.436 -41.541 -57.540  0.00  0.00    +0.000 OA
ATOM     14  H   UNL     1     -56.116 -41.888 -62.318  0.00  0.00    +0.000 HD
ENDROOT
BRANCH   1  16
ATOM     15  C   UNL     1     -60.447 -40.465 -59.318  0.00  0.00    +0.000 C 
ATOM     16  C   UNL     1     -59.013 -39.991 -59.354  0.00  0.00    +0.000 C 
ATOM     17  O   UNL     1     -58.760 -38.824 -59.049  0.00  0.00    +0.000 OA
ENDBRANCH   1  16
BRANCH   2  18
ATOM     18  S   UNL     1     -58.170 -40.121 -62.417  0.00  0.00    +0.000 S 
ATOM     19  O   UNL     1     -57.017 -40.082 -63.385  0.00  0.00    +0.000 OA
BRANCH  18  20
ATOM     20  C   UNL     1     -59.391 -41.278 -63.136  0.00  0.00    +0.000 C 
BRANCH  20  21
ATOM     21  C   UNL     1     -58.784 -42.178 -64.162  0.00  0.00    +0.000 A 
ATOM     22  C   UNL     1     -58.715 -42.040 -65.574  0.00  0.00    +0.000 A 
ATOM     23  C   UNL     1     -58.047 -43.162 -66.000  0.00  0.00    +0.000 A 
ATOM     24  C   UNL     1     -57.675 -43.705 -67.319  0.00  0.00    +0.000 C 
ATOM     25  O   UNL     1     -57.690 -43.902 -64.918  0.00  0.00    +0.000 OA
ATOM     26  N   UNL     1     -58.142 -43.288 -63.765  0.00  0.00    +0.000 NA
ENDBRANCH  20  21
ENDBRANCH  18  20
ENDBRANCH   2  18
TORSDOF 4
