REMARK VINA RESULT:    -6.458     11.449     13.464
REMARK INTER + INTRA:          -9.285
REMARK INTER:                  -8.660
REMARK INTRA:                  -0.625
REMARK UNBOUND:                -0.940
REMARK  Name = 
REMARK  6 active torsions:
REMARK  status: ('A' for Active; 'I' for Inactive)
REMARK    1  A    between atoms: C_1  and  C_2
REMARK    2  A    between atoms: C_4  and  C_5
REMARK    3  A    between atoms: C_5  and  S_6
REMARK    4  A    between atoms: S_6  and  C_8
REMARK    5  A    between atoms: C_20  and  C_21
REMARK    6  A    between atoms: C_21  and  C_23
REMARK                            x       y       z     vdW  Elec       q    Type
REMARK                         _______ _______ _______ _____ _____    ______ ____
ROOT
ATOM      1  C   UNL     1     -57.611 -43.091 -77.161  0.00  0.00    +0.000 A 
ATOM      2  N   UNL     1     -57.202 -44.393 -77.506  0.00  0.00    +0.000 N 
ATOM      3  C   UNL     1     -56.111 -45.011 -76.834  0.00  0.00    +0.000 A 
ATOM      4  C   UNL     1     -55.896 -46.402 -76.839  0.00  0.00    +0.000 A 
ATOM      5 BR   UNL     1     -57.164 -47.587 -77.605  0.00  0.00    +0.000 Br
ATOM      6  C   UNL     1     -54.749 -46.960 -76.257  0.00  0.00    +0.000 A 
ATOM      7  C   UNL     1     -53.812 -46.126 -75.635  0.00  0.00    +0.000 A 
ATOM      8  C   UNL     1     -54.006 -44.745 -75.616  0.00  0.00    +0.000 A 
ATOM      9 CL   UNL     1     -52.830 -43.811 -74.762  0.00  0.00    +0.000 Cl
ATOM     10  C   UNL     1     -55.140 -44.196 -76.234  0.00  0.00    +0.000 A 
ATOM     11  C   UNL     1     -55.385 -42.744 -76.339  0.00  0.00    +0.000 A 
ATOM     12  O   UNL     1     -54.466 -41.938 -76.408  0.00  0.00    +0.000 OA
ATOM     13  C   UNL     1     -56.807 -42.277 -76.441  0.00  0.00    +0.000 A 
ATOM     14  H   UNL     1     -58.000 -45.023 -77.667  0.00  0.00    +0.000 HD
ENDROOT
BRANCH   1  15
ATOM     15  S   UNL     1     -59.393 -42.841 -77.377  0.00  0.00    +0.000 S 
ATOM     16  O   UNL     1     -59.956 -44.234 -77.440  0.00  0.00    +0.000 OA
BRANCH  15  17
ATOM     17  C   UNL     1     -59.704 -42.055 -78.985  0.00  0.00    +0.000 C 
BRANCH  17  21
ATOM     18  C   UNL     1     -62.317 -37.731 -79.820  0.00  0.00    +0.000 C 
ATOM     19  C   UNL     1     -61.460 -38.866 -79.430  0.00  0.00    +0.000 A 
ATOM     20  C   UNL     1     -61.398 -40.195 -79.777  0.00  0.00    +0.000 A 
ATOM     21  C   UNL     1     -60.265 -40.688 -79.093  0.00  0.00    +0.000 A 
ATOM     22  N   UNL     1     -59.722 -39.727 -78.325  0.00  0.00    +0.000 NA
ATOM     23  O   UNL     1     -60.472 -38.589 -78.542  0.00  0.00    +0.000 OA
ENDBRANCH  17  21
ENDBRANCH  15  17
ENDBRANCH   1  15
BRANCH  13  24
ATOM     24  C   UNL     1     -57.111 -41.093 -75.588  0.00  0.00    +0.000 C 
ATOM     25  O   UNL     1     -57.376 -40.016 -76.095  0.00  0.00    +0.000 OA
BRANCH  24  26
ATOM     26  C   UNL     1     -57.134 -41.259 -74.123  0.00  0.00    +0.000 C 
ATOM     27  C   UNL     1     -58.315 -41.930 -73.471  0.00  0.00    +0.000 C 
ATOM     28  C   UNL     1     -58.085 -40.465 -73.259  0.00  0.00    +0.000 C 
ENDBRANCH  24  26
ENDBRANCH  13  24
TORSDOF 5
