REMARK VINA RESULT:    -7.015     10.981     13.601
REMARK INTER + INTRA:         -10.107
REMARK INTER:                  -9.062
REMARK INTRA:                  -1.045
REMARK UNBOUND:                -1.042
REMARK  Name = 
REMARK  8 active torsions:
REMARK  status: ('A' for Active; 'I' for Inactive)
REMARK    1  A    between atoms: C_1  and  C_2
REMARK    2  A    between atoms: C_4  and  C_5
REMARK    3  A    between atoms: C_5  and  S_6
REMARK    4  A    between atoms: S_6  and  C_8
REMARK    5  A    between atoms: C_20  and  C_21
REMARK    6  A    between atoms: C_21  and  C_23
REMARK    7  A    between atoms: C_23  and  C_24
REMARK    8  A    between atoms: C_23  and  C_25
REMARK                            x       y       z     vdW  Elec       q    Type
REMARK                         _______ _______ _______ _____ _____    ______ ____
ROOT
ATOM      1  C   UNL     1     -55.665 -42.306 -77.354  0.00  0.00    +0.000 A 
ATOM      2  N   UNL     1     -54.932 -41.128 -77.234  0.00  0.00    +0.000 N 
ATOM      3  C   UNL     1     -53.593 -41.133 -76.799  0.00  0.00    +0.000 A 
ATOM      4  C   UNL     1     -52.717 -40.061 -77.058  0.00  0.00    +0.000 A 
ATOM      5 BR   UNL     1     -53.250 -38.610 -78.157  0.00  0.00    +0.000 Br
ATOM      6  C   UNL     1     -51.416 -40.056 -76.548  0.00  0.00    +0.000 A 
ATOM      7  C   UNL     1     -50.969 -41.124 -75.775  0.00  0.00    +0.000 A 
ATOM      8  C   UNL     1     -51.825 -42.209 -75.511  0.00  0.00    +0.000 A 
ATOM      9 CL   UNL     1     -51.137 -43.506 -74.604  0.00  0.00    +0.000 Cl
ATOM     10  C   UNL     1     -53.141 -42.210 -76.020  0.00  0.00    +0.000 A 
ATOM     11  C   UNL     1     -54.131 -43.290 -75.771  0.00  0.00    +0.000 A 
ATOM     12  O   UNL     1     -54.019 -44.011 -74.784  0.00  0.00    +0.000 OA
ATOM     13  C   UNL     1     -55.288 -43.458 -76.751  0.00  0.00    +0.000 A 
ATOM     14  H   UNL     1     -55.179 -40.411 -77.929  0.00  0.00    +0.000 HD
ENDROOT
BRANCH   1  15
ATOM     15  S   UNL     1     -57.023 -42.131 -78.572  0.00  0.00    +0.000 S 
ATOM     16  O   UNL     1     -56.376 -41.425 -79.733  0.00  0.00    +0.000 OA
BRANCH  15  17
ATOM     17  C   UNL     1     -58.170 -40.969 -77.756  0.00  0.00    +0.000 C 
BRANCH  17  21
ATOM     18  C   UNL     1     -58.059 -40.950 -72.580  0.00  0.00    +0.000 C 
ATOM     19  C   UNL     1     -58.223 -41.114 -74.041  0.00  0.00    +0.000 A 
ATOM     20  C   UNL     1     -57.810 -40.415 -75.153  0.00  0.00    +0.000 A 
ATOM     21  C   UNL     1     -58.301 -41.160 -76.263  0.00  0.00    +0.000 A 
ATOM     22  N   UNL     1     -58.986 -42.231 -75.826  0.00  0.00    +0.000 NA
ATOM     23  O   UNL     1     -58.931 -42.199 -74.445  0.00  0.00    +0.000 OA
ENDBRANCH  17  21
ENDBRANCH  15  17
ENDBRANCH   1  15
BRANCH  13  24
ATOM     24  C   UNL     1     -55.817 -44.862 -76.943  0.00  0.00    +0.000 C 
ATOM     25  O   UNL     1     -57.006 -45.108 -76.745  0.00  0.00    +0.000 OA
BRANCH  24  26
ATOM     26  C   UNL     1     -54.868 -46.001 -77.319  0.00  0.00    +0.000 C 
ATOM     27  C   UNL     1     -54.831 -47.085 -76.244  0.00  0.00    +0.000 C 
ATOM     28  C   UNL     1     -55.218 -46.612 -78.678  0.00  0.00    +0.000 C 
ENDBRANCH  24  26
ENDBRANCH  13  24
TORSDOF 5
