REMARK VINA RESULT:    -6.084     22.345     26.074
REMARK INTER + INTRA:          -8.736
REMARK INTER:                  -7.853
REMARK INTRA:                  -0.883
REMARK UNBOUND:                -0.874
REMARK  Name = 
REMARK  8 active torsions:
REMARK  status: ('A' for Active; 'I' for Inactive)
REMARK    1  A    between atoms: C_1  and  C_2
REMARK    2  A    between atoms: C_4  and  C_5
REMARK    3  A    between atoms: C_5  and  S_6
REMARK    4  A    between atoms: S_6  and  C_8
REMARK    5  A    between atoms: C_20  and  C_21
REMARK    6  A    between atoms: C_21  and  C_23
REMARK    7  A    between atoms: C_23  and  C_24
REMARK    8  A    between atoms: C_23  and  C_25
REMARK                            x       y       z     vdW  Elec       q    Type
REMARK                         _______ _______ _______ _____ _____    ______ ____
ROOT
ATOM      1  C   UNL     1     -66.978 -49.802 -54.439  0.00  0.00    +0.000 A 
ATOM      2  N   UNL     1     -67.675 -50.689 -55.255  0.00  0.00    +0.000 N 
ATOM      3  C   UNL     1     -68.032 -51.977 -54.810  0.00  0.00    +0.000 A 
ATOM      4  C   UNL     1     -69.062 -52.720 -55.416  0.00  0.00    +0.000 A 
ATOM      5 BR   UNL     1     -70.148 -51.957 -56.771  0.00  0.00    +0.000 Br
ATOM      6  C   UNL     1     -69.343 -54.027 -55.006  0.00  0.00    +0.000 A 
ATOM      7  C   UNL     1     -68.601 -54.608 -53.982  0.00  0.00    +0.000 A 
ATOM      8  C   UNL     1     -67.571 -53.880 -53.359  0.00  0.00    +0.000 A 
ATOM      9 CL   UNL     1     -66.769 -54.679 -52.055  0.00  0.00    +0.000 Cl
ATOM     10  C   UNL     1     -67.283 -52.564 -53.777  0.00  0.00    +0.000 A 
ATOM     11  C   UNL     1     -66.198 -51.726 -53.206  0.00  0.00    +0.000 A 
ATOM     12  O   UNL     1     -65.235 -52.255 -52.659  0.00  0.00    +0.000 OA
ATOM     13  C   UNL     1     -66.302 -50.209 -53.338  0.00  0.00    +0.000 A 
ATOM     14  H   UNL     1     -68.340 -50.232 -55.895  0.00  0.00    +0.000 HD
ENDROOT
BRANCH   1  15
ATOM     15  S   UNL     1     -67.282 -48.062 -54.925  0.00  0.00    +0.000 S 
ATOM     16  O   UNL     1     -68.512 -47.681 -54.146  0.00  0.00    +0.000 OA
BRANCH  15  17
ATOM     17  C   UNL     1     -67.733 -48.191 -56.688  0.00  0.00    +0.000 C 
BRANCH  17  21
ATOM     18  C   UNL     1     -64.429 -47.297 -60.572  0.00  0.00    +0.000 C 
ATOM     19  C   UNL     1     -65.244 -47.439 -59.346  0.00  0.00    +0.000 A 
ATOM     20  C   UNL     1     -66.479 -47.972 -59.054  0.00  0.00    +0.000 A 
ATOM     21  C   UNL     1     -66.634 -47.797 -57.648  0.00  0.00    +0.000 A 
ATOM     22  N   UNL     1     -65.554 -47.175 -57.144  0.00  0.00    +0.000 NA
ATOM     23  O   UNL     1     -64.692 -46.958 -58.203  0.00  0.00    +0.000 OA
ENDBRANCH  17  21
ENDBRANCH  15  17
ENDBRANCH   1  15
BRANCH  13  24
ATOM     24  C   UNL     1     -65.687 -49.386 -52.229  0.00  0.00    +0.000 C 
ATOM     25  O   UNL     1     -66.364 -49.051 -51.258  0.00  0.00    +0.000 OA
BRANCH  24  26
ATOM     26  C   UNL     1     -64.238 -48.908 -52.333  0.00  0.00    +0.000 C 
ATOM     27  C   UNL     1     -63.641 -49.208 -53.706  0.00  0.00    +0.000 C 
ATOM     28  C   UNL     1     -64.102 -47.418 -52.009  0.00  0.00    +0.000 C 
ENDBRANCH  24  26
ENDBRANCH  13  24
TORSDOF 5
