=
 OpenBabel09152518073D

 28 30  0  0  0  0  0  0  0  0999 V2000
  -55.6200  -41.5010  -63.6060 C   0  0  0  0  0  0  0  0  0  0  0  0
  -54.2960  -41.1350  -63.8290 N   0  0  0  0  0  0  0  0  0  0  0  0
  -53.2640  -42.0910  -63.8780 C   0  0  0  0  0  0  0  0  0  0  0  0
  -52.0280  -41.8280  -64.4980 C   0  0  0  0  0  0  0  0  0  0  0  0
  -51.7390  -40.2150  -65.4530 Br  0  0  0  0  0  0  0  0  0  0  0  0
  -50.9920  -42.7670  -64.4640 C   0  0  0  0  0  3  0  0  0  0  0  0
  -51.1790  -43.9830  -63.8140 C   0  0  0  0  0  3  0  0  0  0  0  0
  -52.4090  -44.2690  -63.1950 C   0  0  0  0  0  0  0  0  0  0  0  0
  -52.5460  -45.8360  -62.4830 Cl  0  0  0  0  0  0  0  0  0  0  0  0
  -53.4510  -43.3190  -63.2230 C   0  0  0  0  0  0  0  0  0  0  0  0
  -54.7730  -43.5110  -62.5720 C   0  0  0  0  0  0  0  0  0  0  0  0
  -54.8880  -44.2920  -61.6320 O   0  0  0  0  0  0  0  0  0  0  0  0
  -55.9620  -42.7030  -63.0850 C   0  0  0  0  0  0  0  0  0  0  0  0
  -54.1880  -40.3210  -64.4500 H   0  0  0  0  0  0  0  0  0  0  0  0
  -56.7850  -40.2660  -64.2970 S   0  0  2  0  0  0  0  0  0  0  0  0
  -57.4500  -39.6800  -63.0810 O   0  0  0  0  0  0  0  0  0  0  0  0
  -58.0040  -41.2910  -65.1860 C   0  0  0  0  0  2  0  0  0  0  0  0
  -55.6440  -42.9140  -69.4990 C   0  0  0  0  0  1  0  0  0  0  0  0
  -56.4280  -42.6250  -68.2780 C   0  0  0  0  0  0  0  0  0  0  0  0
  -56.3870  -41.6590  -67.2990 C   0  0  0  0  0  3  0  0  0  0  0  0
  -57.4700  -41.9690  -66.4270 C   0  0  0  0  0  0  0  0  0  0  0  0
  -58.1020  -43.0730  -66.8600 N   0  0  0  0  0  0  0  0  0  0  0  0
  -57.4530  -43.4750  -68.0120 O   0  0  0  0  0  0  0  0  0  0  0  0
  -57.3220  -43.3560  -62.9800 C   0  0  0  0  0  0  0  0  0  0  0  0
  -57.6190  -44.2910  -63.7230 O   0  0  0  0  0  0  0  0  0  0  0  0
  -58.3640  -42.8180  -61.9980 C   0  0  0  0  0  3  0  0  0  0  0  0
  -59.4670  -43.8380  -61.7280 C   0  0  0  0  0  1  0  0  0  0  0  0
  -57.7280  -42.3630  -60.6820 C   0  0  0  0  0  1  0  0  0  0  0  0
  1 13  2  0  0  0  0
  2  1  1  0  0  0  0
  3  2  1  0  0  0  0
  3 10  1  0  0  0  0
  4  6  1  0  0  0  0
  4  3  2  0  0  0  0
  5  4  1  0  0  0  0
  6  7  2  0  0  0  0
  7  8  1  0  0  0  0
  8  9  1  0  0  0  0
 10  8  2  0  0  0  0
 10 11  1  0  0  0  0
 11 12  2  0  0  0  0
 13 24  1  0  0  0  0
 13 11  1  0  0  0  0
 14  2  1  0  0  0  0
 15  1  1  0  0  0  0
 15 16  2  1  0  0  0
 17 15  1  0  0  0  0
 18 19  1  0  0  0  0
 19 23  1  0  0  0  0
 19 20  2  0  0  0  0
 20 21  1  0  0  0  0
 21 17  1  0  0  0  0
 22 21  2  0  0  0  0
 23 22  1  0  0  0  0
 24 26  1  0  0  0  0
 25 24  2  0  0  0  0
 26 27  1  0  0  0  0
 26 28  1  0  0  0  0
M  END
>  <MODEL>
1

>  <REMARK>
 VINA RESULT:    -7.844      0.000      0.000
 INTER + INTRA:         -10.936
 INTER:                 -10.136
 INTRA:                  -0.800
 UNBOUND:                -0.800
  Name = 
  8 active torsions:
  status: ('A' for Active; 'I' for Inactive)
    1  A    between atoms: C_1  and  C_2
    2  A    between atoms: C_4  and  C_5
    3  A    between atoms: C_5  and  S_6
    4  A    between atoms: S_6  and  C_8
    5  A    between atoms: C_20  and  C_21
    6  A    between atoms: C_21  and  C_23
    7  A    between atoms: C_23  and  C_24
    8  A    between atoms: C_23  and  C_25
                            x       y       z     vdW  Elec       q    Type
                         _______ _______ _______ _____ _____    ______ ____

>  <TORSDO>
F 5

$$$$
