REMARK VINA RESULT:    -4.872      4.675      8.065
REMARK INTER + INTRA:          -7.218
REMARK INTER:                  -6.356
REMARK INTRA:                  -0.862
REMARK UNBOUND:                -0.922
REMARK  Name = 
REMARK  6 active torsions:
REMARK  status: ('A' for Active; 'I' for Inactive)
REMARK    1  A    between atoms: C_1  and  C_2
REMARK    2  A    between atoms: C_4  and  C_5
REMARK    3  A    between atoms: C_5  and  S_6
REMARK    4  A    between atoms: S_6  and  C_8
REMARK    5  A    between atoms: C_20  and  C_21
REMARK    6  A    between atoms: C_21  and  C_23
REMARK                            x       y       z     vdW  Elec       q    Type
REMARK                         _______ _______ _______ _____ _____    ______ ____
ROOT
ATOM      1  C   UNL     1     -55.800 -43.742 -78.475  0.00  0.00    +0.000 A 
ATOM      2  N   UNL     1     -56.529 -43.377 -79.624  0.00  0.00    +0.000 N 
ATOM      3  C   UNL     1     -57.939 -43.551 -79.671  0.00  0.00    +0.000 A 
ATOM      4  C   UNL     1     -58.766 -42.873 -80.586  0.00  0.00    +0.000 A 
ATOM      5 BR   UNL     1     -58.069 -41.523 -81.722  0.00  0.00    +0.000 Br
ATOM      6  C   UNL     1     -60.137 -43.156 -80.673  0.00  0.00    +0.000 A 
ATOM      7  C   UNL     1     -60.702 -44.109 -79.818  0.00  0.00    +0.000 A 
ATOM      8  C   UNL     1     -59.903 -44.792 -78.901  0.00  0.00    +0.000 A 
ATOM      9 CL   UNL     1     -60.708 -45.894 -77.843  0.00  0.00    +0.000 Cl
ATOM     10  C   UNL     1     -58.526 -44.526 -78.849  0.00  0.00    +0.000 A 
ATOM     11  C   UNL     1     -57.590 -45.257 -77.974  0.00  0.00    +0.000 A 
ATOM     12  O   UNL     1     -57.781 -46.425 -77.659  0.00  0.00    +0.000 OA
ATOM     13  C   UNL     1     -56.339 -44.553 -77.538  0.00  0.00    +0.000 A 
ATOM     14  H   UNL     1     -56.208 -42.483 -80.021  0.00  0.00    +0.000 HD
ENDROOT
BRANCH   1  15
ATOM     15  S   UNL     1     -54.349 -42.690 -78.208  0.00  0.00    +0.000 S 
ATOM     16  O   UNL     1     -54.648 -41.969 -76.921  0.00  0.00    +0.000 OA
BRANCH  15  17
ATOM     17  C   UNL     1     -54.256 -41.439 -79.523  0.00  0.00    +0.000 C 
BRANCH  17  21
ATOM     18  C   UNL     1     -51.962 -41.534 -84.099  0.00  0.00    +0.000 C 
ATOM     19  C   UNL     1     -52.444 -41.595 -82.707  0.00  0.00    +0.000 A 
ATOM     20  C   UNL     1     -53.568 -41.150 -82.052  0.00  0.00    +0.000 A 
ATOM     21  C   UNL     1     -53.427 -41.638 -80.734  0.00  0.00    +0.000 A 
ATOM     22  N   UNL     1     -52.253 -42.277 -80.590  0.00  0.00    +0.000 NA
ATOM     23  O   UNL     1     -51.643 -42.249 -81.827  0.00  0.00    +0.000 OA
ENDBRANCH  17  21
ENDBRANCH  15  17
ENDBRANCH   1  15
BRANCH  13  24
ATOM     24  C   UNL     1     -56.016 -44.743 -76.096  0.00  0.00    +0.000 C 
ATOM     25  O   UNL     1     -56.684 -44.198 -75.234  0.00  0.00    +0.000 OA
BRANCH  24  26
ATOM     26  C   UNL     1     -54.905 -45.641 -75.728  0.00  0.00    +0.000 C 
ATOM     27  C   UNL     1     -54.422 -46.668 -76.719  0.00  0.00    +0.000 C 
ATOM     28  C   UNL     1     -55.137 -47.113 -75.480  0.00  0.00    +0.000 C 
ENDBRANCH  24  26
ENDBRANCH  13  24
TORSDOF 5
