REMARK VINA RESULT:    -6.205      2.352      3.117
REMARK INTER + INTRA:          -8.372
REMARK INTER:                  -7.688
REMARK INTRA:                  -0.684
REMARK UNBOUND:                -0.716
REMARK  Name = 
REMARK  6 active torsions:
REMARK  status: ('A' for Active; 'I' for Inactive)
REMARK    1  A    between atoms: C_1  and  C_2
REMARK    2  A    between atoms: C_2  and  C_4
REMARK    3  A    between atoms: C_5  and  S_6
REMARK    4  A    between atoms: S_6  and  C_8
REMARK    5  A    between atoms: C_8  and  C_9
REMARK    6  A    between atoms: C_11  and  C_12
REMARK                            x       y       z     vdW  Elec       q    Type
REMARK                         _______ _______ _______ _____ _____    ______ ____
ROOT
ATOM      1  C   UNL     1     -54.069 -41.377 -78.154  0.00  0.00    +0.000 A 
ATOM      2  C   UNL     1     -54.878 -42.459 -78.124  0.00  0.00    +0.000 A 
ATOM      3  N   UNL     1     -54.733 -43.495 -77.221  0.00  0.00    +0.000 N 
ATOM      4  C   UNL     1     -53.630 -43.598 -76.354  0.00  0.00    +0.000 A 
ATOM      5  C   UNL     1     -53.494 -44.701 -75.493  0.00  0.00    +0.000 A 
ATOM      6 BR   UNL     1     -54.745 -46.133 -75.528  0.00  0.00    +0.000 Br
ATOM      7  C   UNL     1     -52.434 -44.784 -74.593  0.00  0.00    +0.000 A 
ATOM      8  C   UNL     1     -51.502 -43.751 -74.536  0.00  0.00    +0.000 A 
ATOM      9  C   UNL     1     -51.628 -42.633 -75.365  0.00  0.00    +0.000 A 
ATOM     10 CL   UNL     1     -50.387 -41.441 -75.186  0.00  0.00    +0.000 Cl
ATOM     11  C   UNL     1     -52.709 -42.541 -76.267  0.00  0.00    +0.000 A 
ATOM     12  C   UNL     1     -52.923 -41.382 -77.180  0.00  0.00    +0.000 A 
ATOM     13  O   UNL     1     -52.133 -40.443 -77.167  0.00  0.00    +0.000 OA
ATOM     14  H   UNL     1     -55.140 -44.387 -77.511  0.00  0.00    +0.000 HD
ENDROOT
BRANCH   1  16
ATOM     15  C   UNL     1     -53.745 -40.367 -80.539  0.00  0.00    +0.000 C 
ATOM     16  C   UNL     1     -54.224 -40.220 -79.112  0.00  0.00    +0.000 C 
ATOM     17  O   UNL     1     -54.723 -39.151 -78.759  0.00  0.00    +0.000 OA
ENDBRANCH   1  16
BRANCH   2  18
ATOM     18  S   UNL     1     -56.144 -42.734 -79.406  0.00  0.00    +0.000 S 
ATOM     19  O   UNL     1     -55.816 -44.107 -79.932  0.00  0.00    +0.000 OA
BRANCH  18  20
ATOM     20  C   UNL     1     -57.617 -42.943 -78.339  0.00  0.00    +0.000 C 
BRANCH  20  21
ATOM     21  C   UNL     1     -57.654 -41.947 -77.225  0.00  0.00    +0.000 A 
ATOM     22  C   UNL     1     -57.691 -42.144 -75.820  0.00  0.00    +0.000 A 
ATOM     23  C   UNL     1     -57.719 -40.876 -75.292  0.00  0.00    +0.000 A 
ATOM     24  C   UNL     1     -57.820 -40.326 -73.927  0.00  0.00    +0.000 C 
ATOM     25  O   UNL     1     -57.647 -39.973 -76.303  0.00  0.00    +0.000 OA
ATOM     26  N   UNL     1     -57.599 -40.638 -77.516  0.00  0.00    +0.000 NA
ENDBRANCH  20  21
ENDBRANCH  18  20
ENDBRANCH   2  18
TORSDOF 4
