REMARK VINA RESULT:    -5.273     10.191     12.642
REMARK INTER + INTRA:          -7.735
REMARK INTER:                  -6.834
REMARK INTRA:                  -0.900
REMARK UNBOUND:                -0.920
REMARK  Name = 
REMARK  8 active torsions:
REMARK  status: ('A' for Active; 'I' for Inactive)
REMARK    1  A    between atoms: C_1  and  C_2
REMARK    2  A    between atoms: C_4  and  C_5
REMARK    3  A    between atoms: C_5  and  S_6
REMARK    4  A    between atoms: S_6  and  C_8
REMARK    5  A    between atoms: C_20  and  C_21
REMARK    6  A    between atoms: C_21  and  C_23
REMARK    7  A    between atoms: C_23  and  C_24
REMARK    8  A    between atoms: C_23  and  C_25
REMARK                            x       y       z     vdW  Elec       q    Type
REMARK                         _______ _______ _______ _____ _____    ______ ____
ROOT
ATOM      1  C   UNL     1     -65.986 -41.130 -70.449  0.00  0.00    +0.000 A 
ATOM      2  N   UNL     1     -66.383 -41.745 -71.633  0.00  0.00    +0.000 N 
ATOM      3  C   UNL     1     -65.494 -42.534 -72.388  0.00  0.00    +0.000 A 
ATOM      4  C   UNL     1     -65.946 -43.483 -73.325  0.00  0.00    +0.000 A 
ATOM      5 BR   UNL     1     -67.793 -43.870 -73.507  0.00  0.00    +0.000 Br
ATOM      6  C   UNL     1     -65.043 -44.197 -74.118  0.00  0.00    +0.000 A 
ATOM      7  C   UNL     1     -63.675 -43.977 -73.983  0.00  0.00    +0.000 A 
ATOM      8  C   UNL     1     -63.202 -43.039 -73.047  0.00  0.00    +0.000 A 
ATOM      9 CL   UNL     1     -61.486 -42.905 -72.919  0.00  0.00    +0.000 Cl
ATOM     10  C   UNL     1     -64.114 -42.313 -72.252  0.00  0.00    +0.000 A 
ATOM     11  C   UNL     1     -63.718 -41.279 -71.261  0.00  0.00    +0.000 A 
ATOM     12  O   UNL     1     -62.643 -40.698 -71.375  0.00  0.00    +0.000 OA
ATOM     13  C   UNL     1     -64.683 -40.950 -70.126  0.00  0.00    +0.000 A 
ATOM     14  H   UNL     1     -67.368 -42.042 -71.639  0.00  0.00    +0.000 HD
ENDROOT
BRANCH   1  15
ATOM     15  S   UNL     1     -67.414 -40.819 -69.343  0.00  0.00    +0.000 S 
ATOM     16  O   UNL     1     -67.826 -42.195 -68.893  0.00  0.00    +0.000 OA
BRANCH  15  17
ATOM     17  C   UNL     1     -68.691 -40.175 -70.476  0.00  0.00    +0.000 C 
BRANCH  17  21
ATOM     18  C   UNL     1     -70.922 -35.592 -69.573  0.00  0.00    +0.000 C 
ATOM     19  C   UNL     1     -70.347 -36.954 -69.640  0.00  0.00    +0.000 A 
ATOM     20  C   UNL     1     -69.749 -37.711 -70.621  0.00  0.00    +0.000 A 
ATOM     21  C   UNL     1     -69.402 -38.937 -69.984  0.00  0.00    +0.000 A 
ATOM     22  N   UNL     1     -69.796 -38.909 -68.699  0.00  0.00    +0.000 NA
ATOM     23  O   UNL     1     -70.379 -37.674 -68.490  0.00  0.00    +0.000 OA
ENDBRANCH  17  21
ENDBRANCH  15  17
ENDBRANCH   1  15
BRANCH  13  24
ATOM     24  C   UNL     1     -64.068 -40.517 -68.814  0.00  0.00    +0.000 C 
ATOM     25  O   UNL     1     -64.008 -39.323 -68.523  0.00  0.00    +0.000 OA
BRANCH  24  26
ATOM     26  C   UNL     1     -63.454 -41.551 -67.870  0.00  0.00    +0.000 C 
ATOM     27  C   UNL     1     -64.123 -42.916 -68.013  0.00  0.00    +0.000 C 
ATOM     28  C   UNL     1     -61.941 -41.679 -68.067  0.00  0.00    +0.000 C 
ENDBRANCH  24  26
ENDBRANCH  13  24
TORSDOF 5
