REMARK VINA RESULT:    -5.415     10.840     12.963
REMARK INTER + INTRA:          -7.885
REMARK INTER:                  -6.924
REMARK INTRA:                  -0.960
REMARK UNBOUND:                -0.887
REMARK  Name = 
REMARK  8 active torsions:
REMARK  status: ('A' for Active; 'I' for Inactive)
REMARK    1  A    between atoms: C_1  and  C_2
REMARK    2  A    between atoms: C_4  and  C_5
REMARK    3  A    between atoms: C_5  and  S_6
REMARK    4  A    between atoms: S_6  and  C_8
REMARK    5  A    between atoms: C_20  and  C_21
REMARK    6  A    between atoms: C_21  and  C_23
REMARK    7  A    between atoms: C_23  and  C_24
REMARK    8  A    between atoms: C_23  and  C_25
REMARK                            x       y       z     vdW  Elec       q    Type
REMARK                         _______ _______ _______ _____ _____    ______ ____
ROOT
ATOM      1  C   UNL     1     -67.345 -40.386 -68.403  0.00  0.00    +0.000 A 
ATOM      2  N   UNL     1     -66.281 -40.197 -69.280  0.00  0.00    +0.000 N 
ATOM      3  C   UNL     1     -64.949 -40.424 -68.885  0.00  0.00    +0.000 A 
ATOM      4  C   UNL     1     -63.919 -40.649 -69.818  0.00  0.00    +0.000 A 
ATOM      5 BR   UNL     1     -64.299 -40.822 -71.668  0.00  0.00    +0.000 Br
ATOM      6  C   UNL     1     -62.592 -40.794 -69.403  0.00  0.00    +0.000 A 
ATOM      7  C   UNL     1     -62.275 -40.721 -68.050  0.00  0.00    +0.000 A 
ATOM      8  C   UNL     1     -63.291 -40.504 -67.100  0.00  0.00    +0.000 A 
ATOM      9 CL   UNL     1     -62.787 -40.505 -65.449  0.00  0.00    +0.000 Cl
ATOM     10  C   UNL     1     -64.629 -40.351 -67.520  0.00  0.00    +0.000 A 
ATOM     11  C   UNL     1     -65.766 -40.087 -66.601  0.00  0.00    +0.000 A 
ATOM     12  O   UNL     1     -65.565 -39.569 -65.507  0.00  0.00    +0.000 OA
ATOM     13  C   UNL     1     -67.174 -40.453 -67.061  0.00  0.00    +0.000 A 
ATOM     14  H   UNL     1     -66.505 -40.416 -70.261  0.00  0.00    +0.000 HD
ENDROOT
BRANCH   1  15
ATOM     15  S   UNL     1     -68.902 -40.741 -69.301  0.00  0.00    +0.000 S 
ATOM     16  O   UNL     1     -68.566 -41.942 -70.142  0.00  0.00    +0.000 OA
BRANCH  15  17
ATOM     17  C   UNL     1     -69.088 -39.298 -70.403  0.00  0.00    +0.000 C 
BRANCH  17  21
ATOM     18  C   UNL     1     -71.391 -34.865 -69.042  0.00  0.00    +0.000 C 
ATOM     19  C   UNL     1     -70.786 -36.201 -69.243  0.00  0.00    +0.000 A 
ATOM     20  C   UNL     1     -70.213 -36.861 -70.305  0.00  0.00    +0.000 A 
ATOM     21  C   UNL     1     -69.808 -38.123 -69.783  0.00  0.00    +0.000 A 
ATOM     22  N   UNL     1     -70.146 -38.208 -68.485  0.00  0.00    +0.000 NA
ATOM     23  O   UNL     1     -70.750 -37.010 -68.153  0.00  0.00    +0.000 OA
ENDBRANCH  17  21
ENDBRANCH  15  17
ENDBRANCH   1  15
BRANCH  13  24
ATOM     24  C   UNL     1     -68.153 -40.868 -65.986  0.00  0.00    +0.000 C 
ATOM     25  O   UNL     1     -68.950 -40.052 -65.524  0.00  0.00    +0.000 OA
BRANCH  24  26
ATOM     26  C   UNL     1     -68.119 -42.287 -65.416  0.00  0.00    +0.000 C 
ATOM     27  C   UNL     1     -68.538 -42.318 -63.948  0.00  0.00    +0.000 C 
ATOM     28  C   UNL     1     -68.979 -43.253 -66.234  0.00  0.00    +0.000 C 
ENDBRANCH  24  26
ENDBRANCH  13  24
TORSDOF 5
