REMARK VINA RESULT:    -5.177      3.925      5.455
REMARK INTER + INTRA:          -7.123
REMARK INTER:                  -6.110
REMARK INTRA:                  -1.014
REMARK UNBOUND:                -0.736
REMARK  Name = 
REMARK  6 active torsions:
REMARK  status: ('A' for Active; 'I' for Inactive)
REMARK    1  A    between atoms: C_1  and  C_2
REMARK    2  A    between atoms: C_2  and  C_4
REMARK    3  A    between atoms: C_5  and  S_6
REMARK    4  A    between atoms: S_6  and  C_8
REMARK    5  A    between atoms: C_8  and  C_9
REMARK    6  A    between atoms: C_11  and  C_12
REMARK                            x       y       z     vdW  Elec       q    Type
REMARK                         _______ _______ _______ _____ _____    ______ ____
ROOT
ATOM      1  C   UNL     1     -57.782 -45.774 -77.830  0.00  0.00    +0.000 A 
ATOM      2  C   UNL     1     -58.485 -44.624 -77.744  0.00  0.00    +0.000 A 
ATOM      3  N   UNL     1     -57.966 -43.460 -77.202  0.00  0.00    +0.000 N 
ATOM      4  C   UNL     1     -56.778 -43.462 -76.449  0.00  0.00    +0.000 A 
ATOM      5  C   UNL     1     -56.387 -42.332 -75.710  0.00  0.00    +0.000 A 
ATOM      6 BR   UNL     1     -57.482 -40.782 -75.644  0.00  0.00    +0.000 Br
ATOM      7  C   UNL     1     -55.193 -42.327 -74.993  0.00  0.00    +0.000 A 
ATOM      8  C   UNL     1     -54.374 -43.454 -75.012  0.00  0.00    +0.000 A 
ATOM      9  C   UNL     1     -54.731 -44.579 -75.766  0.00  0.00    +0.000 A 
ATOM     10 CL   UNL     1     -53.668 -45.936 -75.655  0.00  0.00    +0.000 Cl
ATOM     11  C   UNL     1     -55.921 -44.573 -76.510  0.00  0.00    +0.000 A 
ATOM     12  C   UNL     1     -56.344 -45.689 -77.399  0.00  0.00    +0.000 A 
ATOM     13  O   UNL     1     -55.531 -46.504 -77.817  0.00  0.00    +0.000 OA
ATOM     14  H   UNL     1     -58.677 -42.811 -76.855  0.00  0.00    +0.000 HD
ENDROOT
BRANCH   1  16
ATOM     15  C   UNL     1     -58.332 -47.376 -79.813  0.00  0.00    +0.000 C 
ATOM     16  C   UNL     1     -58.321 -47.088 -78.323  0.00  0.00    +0.000 C 
ATOM     17  O   UNL     1     -58.752 -47.929 -77.539  0.00  0.00    +0.000 OA
ENDBRANCH   1  16
BRANCH   2  18
ATOM     18  S   UNL     1     -60.248 -44.533 -78.204  0.00  0.00    +0.000 S 
ATOM     19  O   UNL     1     -60.828 -43.611 -77.166  0.00  0.00    +0.000 OA
BRANCH  18  20
ATOM     20  C   UNL     1     -60.057 -43.535 -79.733  0.00  0.00    +0.000 C 
BRANCH  20  21
ATOM     21  C   UNL     1     -60.237 -42.063 -79.543  0.00  0.00    +0.000 A 
ATOM     22  C   UNL     1     -61.358 -41.225 -79.782  0.00  0.00    +0.000 A 
ATOM     23  C   UNL     1     -60.974 -39.989 -79.320  0.00  0.00    +0.000 A 
ATOM     24  C   UNL     1     -61.619 -38.665 -79.236  0.00  0.00    +0.000 C 
ATOM     25  O   UNL     1     -59.709 -40.072 -78.832  0.00  0.00    +0.000 OA
ATOM     26  N   UNL     1     -59.246 -41.366 -78.964  0.00  0.00    +0.000 NA
ENDBRANCH  20  21
ENDBRANCH  18  20
ENDBRANCH   2  18
TORSDOF 4
