REMARK VINA RESULT:    -7.165      2.206      3.995
REMARK INTER + INTRA:         -10.185
REMARK INTER:                  -9.070
REMARK INTRA:                  -1.114
REMARK UNBOUND:                -0.925
REMARK  Name = 
REMARK  8 active torsions:
REMARK  status: ('A' for Active; 'I' for Inactive)
REMARK    1  A    between atoms: C_1  and  C_2
REMARK    2  A    between atoms: C_4  and  C_5
REMARK    3  A    between atoms: C_5  and  S_6
REMARK    4  A    between atoms: S_6  and  C_8
REMARK    5  A    between atoms: C_20  and  C_21
REMARK    6  A    between atoms: C_21  and  C_23
REMARK    7  A    between atoms: C_23  and  C_24
REMARK    8  A    between atoms: C_23  and  C_25
REMARK                            x       y       z     vdW  Elec       q    Type
REMARK                         _______ _______ _______ _____ _____    ______ ____
ROOT
ATOM      1  C   UNL     1     -55.702 -42.295 -77.343  0.00  0.00    +0.000 A 
ATOM      2  N   UNL     1     -54.985 -41.103 -77.278  0.00  0.00    +0.000 N 
ATOM      3  C   UNL     1     -53.632 -41.073 -76.876  0.00  0.00    +0.000 A 
ATOM      4  C   UNL     1     -52.790 -39.982 -77.166  0.00  0.00    +0.000 A 
ATOM      5 CL   UNL     1     -53.334 -38.690 -78.177  0.00  0.00    +0.000 Cl
ATOM      6  C   UNL     1     -51.487 -39.928 -76.669  0.00  0.00    +0.000 A 
ATOM      7  C   UNL     1     -51.008 -40.971 -75.875  0.00  0.00    +0.000 A 
ATOM      8  C   UNL     1     -51.826 -42.072 -75.588  0.00  0.00    +0.000 A 
ATOM      9 CL   UNL     1     -51.100 -43.328 -74.653  0.00  0.00    +0.000 Cl
ATOM     10  C   UNL     1     -53.139 -42.115 -76.079  0.00  0.00    +0.000 A 
ATOM     11  C   UNL     1     -54.119 -43.189 -75.773  0.00  0.00    +0.000 A 
ATOM     12  O   UNL     1     -54.018 -43.809 -74.721  0.00  0.00    +0.000 OA
ATOM     13  C   UNL     1     -55.278 -43.436 -76.730  0.00  0.00    +0.000 A 
ATOM     14  H   UNL     1     -55.241 -40.428 -78.011  0.00  0.00    +0.000 HD
ENDROOT
BRANCH   1  15
ATOM     15  S   UNL     1     -57.098 -42.165 -78.533  0.00  0.00    +0.000 S 
ATOM     16  O   UNL     1     -56.509 -41.404 -79.690  0.00  0.00    +0.000 OA
BRANCH  15  17
ATOM     17  C   UNL     1     -58.266 -41.038 -77.670  0.00  0.00    +0.000 C 
BRANCH  17  21
ATOM     18  C   UNL     1     -57.857 -40.949 -72.516  0.00  0.00    +0.000 C 
ATOM     19  C   UNL     1     -58.102 -41.136 -73.962  0.00  0.00    +0.000 A 
ATOM     20  C   UNL     1     -57.812 -40.421 -75.101  0.00  0.00    +0.000 A 
ATOM     21  C   UNL     1     -58.306 -41.216 -76.173  0.00  0.00    +0.000 A 
ATOM     22  N   UNL     1     -58.888 -42.327 -75.688  0.00  0.00    +0.000 NA
ATOM     23  O   UNL     1     -58.753 -42.275 -74.314  0.00  0.00    +0.000 OA
ENDBRANCH  17  21
ENDBRANCH  15  17
ENDBRANCH   1  15
BRANCH  13  24
ATOM     24  C   UNL     1     -55.720 -44.881 -76.832  0.00  0.00    +0.000 C 
ATOM     25  O   UNL     1     -56.871 -45.198 -76.505  0.00  0.00    +0.000 OA
BRANCH  24  26
ATOM     26  C   UNL     1     -54.756 -45.999 -77.182  0.00  0.00    +0.000 C 
ATOM     27  C   UNL     1     -54.649 -46.967 -76.018  0.00  0.00    +0.000 C 
ATOM     28  C   UNL     1     -55.125 -46.670 -78.500  0.00  0.00    +0.000 C 
ENDBRANCH  24  26
ENDBRANCH  13  24
TORSDOF 5
