REMARK VINA RESULT:    -6.620     13.087     15.425
REMARK INTER + INTRA:          -8.835
REMARK INTER:                  -7.969
REMARK INTRA:                  -0.866
REMARK UNBOUND:                -0.667
REMARK  Name = 
REMARK  6 active torsions:
REMARK  status: ('A' for Active; 'I' for Inactive)
REMARK    1  A    between atoms: C_1  and  C_2
REMARK    2  A    between atoms: C_2  and  C_4
REMARK    3  A    between atoms: C_5  and  S_6
REMARK    4  A    between atoms: S_6  and  C_8
REMARK    5  A    between atoms: C_8  and  C_9
REMARK    6  A    between atoms: C_11  and  C_12
REMARK                            x       y       z     vdW  Elec       q    Type
REMARK                         _______ _______ _______ _____ _____    ______ ____
ROOT
ATOM      1  C   UNL     1     -56.191 -41.751 -77.957  0.00  0.00    +0.000 A 
ATOM      2  C   UNL     1     -54.882 -42.024 -77.756  0.00  0.00    +0.000 A 
ATOM      3  N   UNL     1     -53.959 -42.111 -78.780  0.00  0.00    +0.000 N 
ATOM      4  C   UNL     1     -54.312 -42.019 -80.137  0.00  0.00    +0.000 A 
ATOM      5  C   UNL     1     -53.330 -42.071 -81.144  0.00  0.00    +0.000 A 
ATOM      6 BR   UNL     1     -51.498 -42.335 -80.710  0.00  0.00    +0.000 Br
ATOM      7  C   UNL     1     -53.669 -41.925 -82.488  0.00  0.00    +0.000 A 
ATOM      8  C   UNL     1     -54.998 -41.718 -82.842  0.00  0.00    +0.000 A 
ATOM      9  C   UNL     1     -55.990 -41.635 -81.859  0.00  0.00    +0.000 A 
ATOM     10 CL   UNL     1     -57.592 -41.367 -82.454  0.00  0.00    +0.000 Cl
ATOM     11  C   UNL     1     -55.647 -41.762 -80.497  0.00  0.00    +0.000 A 
ATOM     12  C   UNL     1     -56.639 -41.673 -79.392  0.00  0.00    +0.000 A 
ATOM     13  O   UNL     1     -57.835 -41.585 -79.645  0.00  0.00    +0.000 OA
ATOM     14  H   UNL     1     -53.113 -42.644 -78.574  0.00  0.00    +0.000 HD
ENDROOT
BRANCH   1  16
ATOM     15  C   UNL     1     -57.401 -40.191 -76.270  0.00  0.00    +0.000 C 
ATOM     16  C   UNL     1     -57.207 -41.568 -76.863  0.00  0.00    +0.000 C 
ATOM     17  O   UNL     1     -57.860 -42.512 -76.419  0.00  0.00    +0.000 OA
ENDBRANCH   1  16
BRANCH   2  18
ATOM     18  S   UNL     1     -54.256 -42.481 -76.104  0.00  0.00    +0.000 S 
ATOM     19  O   UNL     1     -54.754 -43.891 -75.920  0.00  0.00    +0.000 OA
BRANCH  18  20
ATOM     20  C   UNL     1     -52.473 -42.621 -76.483  0.00  0.00    +0.000 C 
BRANCH  20  21
ATOM     21  C   UNL     1     -51.744 -41.353 -76.175  0.00  0.00    +0.000 A 
ATOM     22  C   UNL     1     -50.495 -41.174 -75.522  0.00  0.00    +0.000 A 
ATOM     23  C   UNL     1     -50.268 -39.823 -75.574  0.00  0.00    +0.000 A 
ATOM     24  C   UNL     1     -49.178 -38.940 -75.115  0.00  0.00    +0.000 C 
ATOM     25  O   UNL     1     -51.304 -39.224 -76.215  0.00  0.00    +0.000 OA
ATOM     26  N   UNL     1     -52.230 -40.179 -76.597  0.00  0.00    +0.000 NA
ENDBRANCH  20  21
ENDBRANCH  18  20
ENDBRANCH   2  18
TORSDOF 4
