REMARK VINA RESULT:    -7.470      0.000      0.000
REMARK INTER + INTRA:         -10.447
REMARK INTER:                  -9.653
REMARK INTRA:                  -0.794
REMARK UNBOUND:                -0.794
REMARK  Name = 
REMARK  8 active torsions:
REMARK  status: ('A' for Active; 'I' for Inactive)
REMARK    1  A    between atoms: C_1  and  C_2
REMARK    2  A    between atoms: C_4  and  C_5
REMARK    3  A    between atoms: C_5  and  S_6
REMARK    4  A    between atoms: S_6  and  C_8
REMARK    5  A    between atoms: C_20  and  C_21
REMARK    6  A    between atoms: C_21  and  C_23
REMARK    7  A    between atoms: C_23  and  C_24
REMARK    8  A    between atoms: C_23  and  C_25
REMARK                            x       y       z     vdW  Elec       q    Type
REMARK                         _______ _______ _______ _____ _____    ______ ____
ROOT
ATOM      1  C   UNL     1     -55.765 -42.671 -76.597  0.00  0.00    +0.000 A 
ATOM      2  N   UNL     1     -54.454 -43.051 -76.326  0.00  0.00    +0.000 N 
ATOM      3  C   UNL     1     -53.411 -42.106 -76.252  0.00  0.00    +0.000 A 
ATOM      4  C   UNL     1     -52.200 -42.378 -75.588  0.00  0.00    +0.000 A 
ATOM      5 BR   UNL     1     -51.963 -43.984 -74.608  0.00  0.00    +0.000 Br
ATOM      6  C   UNL     1     -51.152 -41.452 -75.597  0.00  0.00    +0.000 A 
ATOM      7  C   UNL     1     -51.302 -40.240 -76.264  0.00  0.00    +0.000 A 
ATOM      8  C   UNL     1     -52.508 -39.946 -76.927  0.00  0.00    +0.000 A 
ATOM      9 CL   UNL     1     -52.601 -38.384 -77.658  0.00  0.00    +0.000 Cl
ATOM     10  C   UNL     1     -53.562 -40.883 -76.925  0.00  0.00    +0.000 A 
ATOM     11  C   UNL     1     -54.859 -40.682 -77.621  0.00  0.00    +0.000 A 
ATOM     12  O   UNL     1     -54.933 -39.909 -78.571  0.00  0.00    +0.000 OA
ATOM     13  C   UNL     1     -56.074 -41.470 -77.141  0.00  0.00    +0.000 A 
ATOM     14  H   UNL     1     -54.376 -43.860 -75.694  0.00  0.00    +0.000 HD
ENDROOT
BRANCH   1  15
ATOM     15  S   UNL     1     -56.966 -43.885 -75.933  0.00  0.00    +0.000 S 
ATOM     16  O   UNL     1     -57.602 -44.472 -77.164  0.00  0.00    +0.000 OA
BRANCH  15  17
ATOM     17  C   UNL     1     -58.199 -42.837 -75.090  0.00  0.00    +0.000 C 
BRANCH  17  21
ATOM     18  C   UNL     1     -55.859 -41.195 -70.773  0.00  0.00    +0.000 C 
ATOM     19  C   UNL     1     -56.666 -41.514 -71.972  0.00  0.00    +0.000 A 
ATOM     20  C   UNL     1     -56.525 -42.367 -73.043  0.00  0.00    +0.000 A 
ATOM     21  C   UNL     1     -57.705 -42.185 -73.820  0.00  0.00    +0.000 A 
ATOM     22  N   UNL     1     -58.489 -41.256 -73.245  0.00  0.00    +0.000 NA
ATOM     23  O   UNL     1     -57.841 -40.845 -72.096  0.00  0.00    +0.000 OA
ENDBRANCH  17  21
ENDBRANCH  15  17
ENDBRANCH   1  15
BRANCH  13  24
ATOM     24  C   UNL     1     -57.422 -40.802 -77.297  0.00  0.00    +0.000 C 
ATOM     25  O   UNL     1     -57.722 -39.841 -76.590  0.00  0.00    +0.000 OA
BRANCH  24  26
ATOM     26  C   UNL     1     -58.448 -41.356 -78.286  0.00  0.00    +0.000 C 
ATOM     27  C   UNL     1     -59.600 -40.380 -78.512  0.00  0.00    +0.000 C 
ATOM     28  C   UNL     1     -57.807 -41.739 -79.622  0.00  0.00    +0.000 C 
ENDBRANCH  24  26
ENDBRANCH  13  24
TORSDOF 5
