REMARK VINA RESULT:    -6.718      4.035      7.310
REMARK INTER + INTRA:          -9.552
REMARK INTER:                  -8.661
REMARK INTRA:                  -0.891
REMARK UNBOUND:                -0.870
REMARK  Name = 
REMARK  8 active torsions:
REMARK  status: ('A' for Active; 'I' for Inactive)
REMARK    1  A    between atoms: C_1  and  C_2
REMARK    2  A    between atoms: C_4  and  C_5
REMARK    3  A    between atoms: C_5  and  S_6
REMARK    4  A    between atoms: S_6  and  C_8
REMARK    5  A    between atoms: C_20  and  C_21
REMARK    6  A    between atoms: C_21  and  C_23
REMARK    7  A    between atoms: C_23  and  C_24
REMARK    8  A    between atoms: C_23  and  C_25
REMARK                            x       y       z     vdW  Elec       q    Type
REMARK                         _______ _______ _______ _____ _____    ______ ____
ROOT
ATOM      1  C   UNL     1     -55.313 -42.263 -77.857  0.00  0.00    +0.000 A 
ATOM      2  N   UNL     1     -56.613 -42.665 -77.566  0.00  0.00    +0.000 N 
ATOM      3  C   UNL     1     -57.165 -42.507 -76.280  0.00  0.00    +0.000 A 
ATOM      4  C   UNL     1     -58.555 -42.505 -76.056  0.00  0.00    +0.000 A 
ATOM      5 BR   UNL     1     -59.777 -42.554 -77.506  0.00  0.00    +0.000 Br
ATOM      6  C   UNL     1     -59.074 -42.425 -74.761  0.00  0.00    +0.000 A 
ATOM      7  C   UNL     1     -58.212 -42.340 -73.671  0.00  0.00    +0.000 A 
ATOM      8  C   UNL     1     -56.820 -42.332 -73.874  0.00  0.00    +0.000 A 
ATOM      9 CL   UNL     1     -55.855 -42.151 -72.453  0.00  0.00    +0.000 Cl
ATOM     10  C   UNL     1     -56.296 -42.421 -75.180  0.00  0.00    +0.000 A 
ATOM     11  C   UNL     1     -54.845 -42.453 -75.497  0.00  0.00    +0.000 A 
ATOM     12  O   UNL     1     -54.040 -42.833 -74.652  0.00  0.00    +0.000 OA
ATOM     13  C   UNL     1     -54.393 -42.029 -76.891  0.00  0.00    +0.000 A 
ATOM     14  H   UNL     1     -57.268 -42.563 -78.354  0.00  0.00    +0.000 HD
ENDROOT
BRANCH   1  15
ATOM     15  S   UNL     1     -55.107 -41.896 -79.641  0.00  0.00    +0.000 S 
ATOM     16  O   UNL     1     -56.417 -42.318 -80.248  0.00  0.00    +0.000 OA
BRANCH  15  17
ATOM     17  C   UNL     1     -53.819 -43.078 -80.165  0.00  0.00    +0.000 C 
BRANCH  17  21
ATOM     18  C   UNL     1     -50.239 -41.906 -83.716  0.00  0.00    +0.000 C 
ATOM     19  C   UNL     1     -51.392 -42.127 -82.816  0.00  0.00    +0.000 A 
ATOM     20  C   UNL     1     -51.627 -42.908 -81.708  0.00  0.00    +0.000 A 
ATOM     21  C   UNL     1     -52.962 -42.604 -81.316  0.00  0.00    +0.000 A 
ATOM     22  N   UNL     1     -53.492 -41.706 -82.165  0.00  0.00    +0.000 NA
ATOM     23  O   UNL     1     -52.511 -41.411 -83.092  0.00  0.00    +0.000 OA
ENDBRANCH  17  21
ENDBRANCH  15  17
ENDBRANCH   1  15
BRANCH  13  24
ATOM     24  C   UNL     1     -53.029 -41.383 -76.996  0.00  0.00    +0.000 C 
ATOM     25  O   UNL     1     -52.040 -42.067 -77.255  0.00  0.00    +0.000 OA
BRANCH  24  26
ATOM     26  C   UNL     1     -52.858 -39.890 -76.717  0.00  0.00    +0.000 C 
ATOM     27  C   UNL     1     -51.429 -39.553 -76.298  0.00  0.00    +0.000 C 
ATOM     28  C   UNL     1     -53.277 -39.032 -77.914  0.00  0.00    +0.000 C 
ENDBRANCH  24  26
ENDBRANCH  13  24
TORSDOF 5
