REMARK VINA RESULT:    -5.379     10.193     12.363
REMARK INTER + INTRA:          -7.853
REMARK INTER:                  -6.852
REMARK INTRA:                  -1.001
REMARK UNBOUND:                -0.901
REMARK  Name = 
REMARK  6 active torsions:
REMARK  status: ('A' for Active; 'I' for Inactive)
REMARK    1  A    between atoms: C_1  and  C_2
REMARK    2  A    between atoms: C_4  and  C_5
REMARK    3  A    between atoms: C_5  and  S_6
REMARK    4  A    between atoms: S_6  and  C_8
REMARK    5  A    between atoms: C_20  and  C_21
REMARK    6  A    between atoms: C_21  and  C_23
REMARK                            x       y       z     vdW  Elec       q    Type
REMARK                         _______ _______ _______ _____ _____    ______ ____
ROOT
ATOM      1  C   UNL     1     -64.301 -43.409 -69.575  0.00  0.00    +0.000 A 
ATOM      2  N   UNL     1     -65.313 -43.540 -68.605  0.00  0.00    +0.000 N 
ATOM      3  C   UNL     1     -65.740 -42.414 -67.848  0.00  0.00    +0.000 A 
ATOM      4  C   UNL     1     -66.970 -42.369 -67.166  0.00  0.00    +0.000 A 
ATOM      5 BR   UNL     1     -68.247 -43.758 -67.358  0.00  0.00    +0.000 Br
ATOM      6  C   UNL     1     -67.303 -41.285 -66.341  0.00  0.00    +0.000 A 
ATOM      7  C   UNL     1     -66.411 -40.214 -66.212  0.00  0.00    +0.000 A 
ATOM      8  C   UNL     1     -65.187 -40.235 -66.880  0.00  0.00    +0.000 A 
ATOM      9 CL   UNL     1     -64.190 -38.835 -66.713  0.00  0.00    +0.000 Cl
ATOM     10  C   UNL     1     -64.850 -41.342 -67.674  0.00  0.00    +0.000 A 
ATOM     11  C   UNL     1     -63.546 -41.493 -68.347  0.00  0.00    +0.000 A 
ATOM     12  O   UNL     1     -62.520 -41.011 -67.882  0.00  0.00    +0.000 OA
ATOM     13  C   UNL     1     -63.489 -42.329 -69.592  0.00  0.00    +0.000 A 
ATOM     14  H   UNL     1     -66.085 -44.139 -68.927  0.00  0.00    +0.000 HD
ENDROOT
BRANCH   1  15
ATOM     15  S   UNL     1     -64.520 -44.546 -70.969  0.00  0.00    +0.000 S 
ATOM     16  O   UNL     1     -63.205 -45.271 -71.065  0.00  0.00    +0.000 OA
BRANCH  15  17
ATOM     17  C   UNL     1     -64.730 -43.594 -72.502  0.00  0.00    +0.000 C 
BRANCH  17  21
ATOM     18  C   UNL     1     -68.444 -40.075 -72.686  0.00  0.00    +0.000 C 
ATOM     19  C   UNL     1     -67.455 -41.161 -72.816  0.00  0.00    +0.000 A 
ATOM     20  C   UNL     1     -66.336 -41.539 -72.113  0.00  0.00    +0.000 A 
ATOM     21  C   UNL     1     -65.913 -42.735 -72.734  0.00  0.00    +0.000 A 
ATOM     22  N   UNL     1     -66.693 -43.018 -73.793  0.00  0.00    +0.000 NA
ATOM     23  O   UNL     1     -67.656 -42.031 -73.838  0.00  0.00    +0.000 OA
ENDBRANCH  17  21
ENDBRANCH  15  17
ENDBRANCH   1  15
BRANCH  13  24
ATOM     24  C   UNL     1     -62.677 -41.721 -70.685  0.00  0.00    +0.000 C 
ATOM     25  O   UNL     1     -63.033 -40.685 -71.218  0.00  0.00    +0.000 OA
BRANCH  24  26
ATOM     26  C   UNL     1     -61.413 -42.371 -71.077  0.00  0.00    +0.000 C 
ATOM     27  C   UNL     1     -60.408 -41.604 -71.898  0.00  0.00    +0.000 C 
ATOM     28  C   UNL     1     -61.143 -42.756 -72.512  0.00  0.00    +0.000 C 
ENDBRANCH  24  26
ENDBRANCH  13  24
TORSDOF 5
