MODEL 1
REMARK VINA RESULT:    -7.000      0.000      0.000
REMARK INTER + INTRA:          -9.284
REMARK INTER:                  -8.637
REMARK INTRA:                  -0.647
REMARK UNBOUND:                -0.647
REMARK  Name = 
REMARK  6 active torsions:
REMARK  status: ('A' for Active; 'I' for Inactive)
REMARK    1  A    between atoms: C_1  and  C_2
REMARK    2  A    between atoms: C_2  and  C_4
REMARK    3  A    between atoms: C_5  and  S_6
REMARK    4  A    between atoms: S_6  and  C_8
REMARK    5  A    between atoms: C_8  and  C_9
REMARK    6  A    between atoms: C_11  and  C_12
REMARK                            x       y       z     vdW  Elec       q    Type
REMARK                         _______ _______ _______ _____ _____    ______ ____
ROOT
ATOM      1  C   UNL     1     -56.357 -42.618 -76.725  0.00  0.00    +0.000 A 
ATOM      2  C   UNL     1     -55.310 -43.416 -76.342  0.00  0.00    +0.000 A 
ATOM      3  N   UNL     1     -55.324 -44.767 -76.573  0.00  0.00    +0.000 N 
ATOM      4  C   UNL     1     -56.436 -45.471 -77.049  0.00  0.00    +0.000 A 
ATOM      5  C   UNL     1     -56.436 -46.882 -77.065  0.00  0.00    +0.000 A 
ATOM      6 BR   UNL     1     -54.956 -47.878 -76.404  0.00  0.00    +0.000 Br
ATOM      7  C   UNL     1     -57.527 -47.586 -77.562  0.00  0.00    +0.000 A 
ATOM      8  C   UNL     1     -58.636 -46.886 -78.030  0.00  0.00    +0.000 A 
ATOM      9  C   UNL     1     -58.660 -45.487 -78.000  0.00  0.00    +0.000 A 
ATOM     10 CL   UNL     1     -60.117 -44.751 -78.569  0.00  0.00    +0.000 Cl
ATOM     11  C   UNL     1     -57.548 -44.778 -77.511  0.00  0.00    +0.000 A 
ATOM     12  C   UNL     1     -57.451 -43.305 -77.505  0.00  0.00    +0.000 A 
ATOM     13  O   UNL     1     -58.243 -42.650 -78.172  0.00  0.00    +0.000 OA
ATOM     14  H   UNL     1     -54.528 -45.308 -76.232  0.00  0.00    +0.000 HD
ENDROOT
BRANCH   1  16
ATOM     15  C   UNL     1     -57.500 -40.710 -75.352  0.00  0.00    +0.000 C 
ATOM     16  C   UNL     1     -56.533 -41.147 -76.454  0.00  0.00    +0.000 C 
ATOM     17  O   UNL     1     -55.918 -40.319 -77.090  0.00  0.00    +0.000 OA
ENDBRANCH   1  16
BRANCH   2  18
ATOM     18  S   UNL     1     -53.879 -42.846 -75.332  0.00  0.00    +0.000 S 
ATOM     19  O   UNL     1     -53.204 -44.140 -74.926  0.00  0.00    +0.000 OA
BRANCH  18  20
ATOM     20  C   UNL     1     -52.783 -42.134 -76.636  0.00  0.00    +0.000 C 
BRANCH  20  21
ATOM     21  C   UNL     1     -51.649 -41.291 -76.148  0.00  0.00    +0.000 A 
ATOM     22  C   UNL     1     -51.393 -39.904 -76.278  0.00  0.00    +0.000 A 
ATOM     23  C   UNL     1     -50.231 -39.704 -75.565  0.00  0.00    +0.000 A 
ATOM     24  C   UNL     1     -49.411 -38.525 -75.259  0.00  0.00    +0.000 C 
ATOM     25  O   UNL     1     -49.810 -40.886 -75.048  0.00  0.00    +0.000 OA
ATOM     26  N   UNL     1     -50.699 -41.881 -75.402  0.00  0.00    +0.000 NA
ENDBRANCH  20  21
ENDBRANCH  18  20
ENDBRANCH   2  18
TORSDOF 4
ENDMDL
MODEL 2
REMARK VINA RESULT:    -6.839      3.935      6.127
REMARK INTER + INTRA:          -9.086
REMARK INTER:                  -8.377
REMARK INTRA:                  -0.708
REMARK UNBOUND:                -0.647
REMARK  Name = 
REMARK  6 active torsions:
REMARK  status: ('A' for Active; 'I' for Inactive)
REMARK    1  A    between atoms: C_1  and  C_2
REMARK    2  A    between atoms: C_2  and  C_4
REMARK    3  A    between atoms: C_5  and  S_6
REMARK    4  A    between atoms: S_6  and  C_8
REMARK    5  A    between atoms: C_8  and  C_9
REMARK    6  A    between atoms: C_11  and  C_12
REMARK                            x       y       z     vdW  Elec       q    Type
REMARK                         _______ _______ _______ _____ _____    ______ ____
ROOT
ATOM      1  C   UNL     1     -54.156 -40.991 -78.494  0.00  0.00    +0.000 A 
ATOM      2  C   UNL     1     -55.116 -41.966 -78.406  0.00  0.00    +0.000 A 
ATOM      3  N   UNL     1     -55.063 -42.931 -77.434  0.00  0.00    +0.000 N 
ATOM      4  C   UNL     1     -53.977 -43.118 -76.571  0.00  0.00    +0.000 A 
ATOM      5  C   UNL     1     -53.912 -44.256 -75.740  0.00  0.00    +0.000 A 
ATOM      6 BR   UNL     1     -55.263 -45.595 -75.790  0.00  0.00    +0.000 Br
ATOM      7  C   UNL     1     -52.850 -44.433 -74.861  0.00  0.00    +0.000 A 
ATOM      8  C   UNL     1     -51.832 -43.484 -74.819  0.00  0.00    +0.000 A 
ATOM      9  C   UNL     1     -51.871 -42.360 -75.654  0.00  0.00    +0.000 A 
ATOM     10 CL   UNL     1     -50.521 -41.288 -75.529  0.00  0.00    +0.000 Cl
ATOM     11  C   UNL     1     -52.956 -42.177 -76.530  0.00  0.00    +0.000 A 
ATOM     12  C   UNL     1     -53.122 -40.993 -77.395  0.00  0.00    +0.000 A 
ATOM     13  O   UNL     1     -52.439 -39.996 -77.185  0.00  0.00    +0.000 OA
ATOM     14  H   UNL     1     -55.791 -43.647 -77.446  0.00  0.00    +0.000 HD
ENDROOT
BRANCH   1  16
ATOM     15  C   UNL     1     -53.698 -40.361 -80.989  0.00  0.00    +0.000 C 
ATOM     16  C   UNL     1     -54.021 -39.932 -79.557  0.00  0.00    +0.000 C 
ATOM     17  O   UNL     1     -54.170 -38.760 -79.289  0.00  0.00    +0.000 OA
ENDBRANCH   1  16
BRANCH   2  18
ATOM     18  S   UNL     1     -56.454 -42.227 -79.645  0.00  0.00    +0.000 S 
ATOM     19  O   UNL     1     -56.775 -43.700 -79.504  0.00  0.00    +0.000 OA
BRANCH  18  20
ATOM     20  C   UNL     1     -57.866 -41.359 -78.832  0.00  0.00    +0.000 C 
BRANCH  20  21
ATOM     21  C   UNL     1     -57.860 -41.357 -77.337  0.00  0.00    +0.000 A 
ATOM     22  C   UNL     1     -57.630 -40.315 -76.406  0.00  0.00    +0.000 A 
ATOM     23  C   UNL     1     -57.824 -40.907 -75.178  0.00  0.00    +0.000 A 
ATOM     24  C   UNL     1     -57.773 -40.425 -73.791  0.00  0.00    +0.000 C 
ATOM     25  O   UNL     1     -58.139 -42.216 -75.352  0.00  0.00    +0.000 OA
ATOM     26  N   UNL     1     -58.173 -42.500 -76.702  0.00  0.00    +0.000 NA
ENDBRANCH  20  21
ENDBRANCH  18  20
ENDBRANCH   2  18
TORSDOF 4
ENDMDL
MODEL 3
REMARK VINA RESULT:    -6.789      3.325      5.403
REMARK INTER + INTRA:          -9.023
REMARK INTER:                  -7.979
REMARK INTRA:                  -1.045
REMARK UNBOUND:                -0.647
REMARK  Name = 
REMARK  6 active torsions:
REMARK  status: ('A' for Active; 'I' for Inactive)
REMARK    1  A    between atoms: C_1  and  C_2
REMARK    2  A    between atoms: C_2  and  C_4
REMARK    3  A    between atoms: C_5  and  S_6
REMARK    4  A    between atoms: S_6  and  C_8
REMARK    5  A    between atoms: C_8  and  C_9
REMARK    6  A    between atoms: C_11  and  C_12
REMARK                            x       y       z     vdW  Elec       q    Type
REMARK                         _______ _______ _______ _____ _____    ______ ____
ROOT
ATOM      1  C   UNL     1     -54.542 -42.434 -77.213  0.00  0.00    +0.000 A 
ATOM      2  C   UNL     1     -55.701 -42.865 -77.807  0.00  0.00    +0.000 A 
ATOM      3  N   UNL     1     -56.205 -44.115 -77.559  0.00  0.00    +0.000 N 
ATOM      4  C   UNL     1     -55.528 -45.107 -76.840  0.00  0.00    +0.000 A 
ATOM      5  C   UNL     1     -56.022 -46.427 -76.803  0.00  0.00    +0.000 A 
ATOM      6 BR   UNL     1     -57.589 -46.923 -77.761  0.00  0.00    +0.000 Br
ATOM      7  C   UNL     1     -55.368 -47.410 -76.068  0.00  0.00    +0.000 A 
ATOM      8  C   UNL     1     -54.204 -47.085 -75.377  0.00  0.00    +0.000 A 
ATOM      9  C   UNL     1     -53.689 -45.784 -75.421  0.00  0.00    +0.000 A 
ATOM     10 CL   UNL     1     -52.214 -45.533 -74.555  0.00  0.00    +0.000 Cl
ATOM     11  C   UNL     1     -54.362 -44.789 -76.153  0.00  0.00    +0.000 A 
ATOM     12  C   UNL     1     -53.937 -43.377 -76.202  0.00  0.00    +0.000 A 
ATOM     13  O   UNL     1     -53.119 -42.968 -75.385  0.00  0.00    +0.000 OA
ATOM     14  H   UNL     1     -57.053 -44.385 -78.060  0.00  0.00    +0.000 HD
ENDROOT
BRANCH   1  16
ATOM     15  C   UNL     1     -52.616 -41.135 -78.411  0.00  0.00    +0.000 C 
ATOM     16  C   UNL     1     -53.814 -41.139 -77.460  0.00  0.00    +0.000 C 
ATOM     17  O   UNL     1     -54.171 -40.113 -76.922  0.00  0.00    +0.000 OA
ENDBRANCH   1  16
BRANCH   2  18
ATOM     18  S   UNL     1     -56.608 -41.940 -79.116  0.00  0.00    +0.000 S 
ATOM     19  O   UNL     1     -56.921 -43.009 -80.142  0.00  0.00    +0.000 OA
BRANCH  18  20
ATOM     20  C   UNL     1     -58.218 -41.615 -78.272  0.00  0.00    +0.000 C 
BRANCH  20  21
ATOM     21  C   UNL     1     -58.161 -41.478 -76.785  0.00  0.00    +0.000 A 
ATOM     22  C   UNL     1     -57.703 -40.420 -75.961  0.00  0.00    +0.000 A 
ATOM     23  C   UNL     1     -57.967 -40.849 -74.679  0.00  0.00    +0.000 A 
ATOM     24  C   UNL     1     -57.778 -40.261 -73.346  0.00  0.00    +0.000 C 
ATOM     25  O   UNL     1     -58.536 -42.080 -74.723  0.00  0.00    +0.000 OA
ATOM     26  N   UNL     1     -58.669 -42.475 -76.039  0.00  0.00    +0.000 NA
ENDBRANCH  20  21
ENDBRANCH  18  20
ENDBRANCH   2  18
TORSDOF 4
ENDMDL
MODEL 4
REMARK VINA RESULT:    -6.432     12.158     14.049
REMARK INTER + INTRA:          -8.583
REMARK INTER:                  -8.142
REMARK INTRA:                  -0.441
REMARK UNBOUND:                -0.647
REMARK  Name = 
REMARK  6 active torsions:
REMARK  status: ('A' for Active; 'I' for Inactive)
REMARK    1  A    between atoms: C_1  and  C_2
REMARK    2  A    between atoms: C_2  and  C_4
REMARK    3  A    between atoms: C_5  and  S_6
REMARK    4  A    between atoms: S_6  and  C_8
REMARK    5  A    between atoms: C_8  and  C_9
REMARK    6  A    between atoms: C_11  and  C_12
REMARK                            x       y       z     vdW  Elec       q    Type
REMARK                         _______ _______ _______ _____ _____    ______ ____
ROOT
ATOM      1  C   UNL     1     -57.757 -40.605 -62.784  0.00  0.00    +0.000 A 
ATOM      2  C   UNL     1     -56.750 -41.424 -63.224  0.00  0.00    +0.000 A 
ATOM      3  N   UNL     1     -55.529 -40.918 -63.588  0.00  0.00    +0.000 N 
ATOM      4  C   UNL     1     -55.249 -39.552 -63.708  0.00  0.00    +0.000 A 
ATOM      5  C   UNL     1     -54.035 -39.119 -64.283  0.00  0.00    +0.000 A 
ATOM      6 BR   UNL     1     -52.761 -40.361 -64.955  0.00  0.00    +0.000 Br
ATOM      7  C   UNL     1     -53.740 -37.764 -64.380  0.00  0.00    +0.000 A 
ATOM      8  C   UNL     1     -54.663 -36.829 -63.920  0.00  0.00    +0.000 A 
ATOM      9  C   UNL     1     -55.882 -37.242 -63.367  0.00  0.00    +0.000 A 
ATOM     10 CL   UNL     1     -56.951 -35.975 -62.880  0.00  0.00    +0.000 Cl
ATOM     11  C   UNL     1     -56.169 -38.615 -63.257  0.00  0.00    +0.000 A 
ATOM     12  C   UNL     1     -57.392 -39.149 -62.626  0.00  0.00    +0.000 A 
ATOM     13  O   UNL     1     -58.085 -38.407 -61.938  0.00  0.00    +0.000 OA
ATOM     14  H   UNL     1     -54.835 -41.580 -63.938  0.00  0.00    +0.000 HD
ENDROOT
BRANCH   1  16
ATOM     15  C   UNL     1     -59.530 -41.290 -60.990  0.00  0.00    +0.000 C 
ATOM     16  C   UNL     1     -59.173 -40.994 -62.448  0.00  0.00    +0.000 C 
ATOM     17  O   UNL     1     -60.019 -41.068 -63.312  0.00  0.00    +0.000 OA
ENDBRANCH   1  16
BRANCH   2  18
ATOM     18  S   UNL     1     -56.942 -43.225 -63.560  0.00  0.00    +0.000 S 
ATOM     19  O   UNL     1     -57.917 -43.674 -62.492  0.00  0.00    +0.000 OA
BRANCH  18  20
ATOM     20  C   UNL     1     -57.933 -43.193 -65.117  0.00  0.00    +0.000 C 
BRANCH  20  21
ATOM     21  C   UNL     1     -57.169 -42.925 -66.374  0.00  0.00    +0.000 A 
ATOM     22  C   UNL     1     -57.248 -43.516 -67.659  0.00  0.00    +0.000 A 
ATOM     23  C   UNL     1     -56.343 -42.805 -68.416  0.00  0.00    +0.000 A 
ATOM     24  C   UNL     1     -55.923 -42.857 -69.823  0.00  0.00    +0.000 C 
ATOM     25  O   UNL     1     -55.754 -41.857 -67.643  0.00  0.00    +0.000 OA
ATOM     26  N   UNL     1     -56.275 -41.922 -66.367  0.00  0.00    +0.000 NA
ENDBRANCH  20  21
ENDBRANCH  18  20
ENDBRANCH   2  18
TORSDOF 4
ENDMDL
MODEL 5
REMARK VINA RESULT:    -6.410      4.038      6.057
REMARK INTER + INTRA:          -8.556
REMARK INTER:                  -7.548
REMARK INTRA:                  -1.008
REMARK UNBOUND:                -0.647
REMARK  Name = 
REMARK  6 active torsions:
REMARK  status: ('A' for Active; 'I' for Inactive)
REMARK    1  A    between atoms: C_1  and  C_2
REMARK    2  A    between atoms: C_2  and  C_4
REMARK    3  A    between atoms: C_5  and  S_6
REMARK    4  A    between atoms: S_6  and  C_8
REMARK    5  A    between atoms: C_8  and  C_9
REMARK    6  A    between atoms: C_11  and  C_12
REMARK                            x       y       z     vdW  Elec       q    Type
REMARK                         _______ _______ _______ _____ _____    ______ ____
ROOT
ATOM      1  C   UNL     1     -53.518 -41.037 -78.167  0.00  0.00    +0.000 A 
ATOM      2  C   UNL     1     -54.864 -41.288 -78.232  0.00  0.00    +0.000 A 
ATOM      3  N   UNL     1     -55.399 -42.045 -79.241  0.00  0.00    +0.000 N 
ATOM      4  C   UNL     1     -54.682 -42.481 -80.361  0.00  0.00    +0.000 A 
ATOM      5  C   UNL     1     -55.350 -43.078 -81.450  0.00  0.00    +0.000 A 
ATOM      6 BR   UNL     1     -57.242 -43.273 -81.463  0.00  0.00    +0.000 Br
ATOM      7  C   UNL     1     -54.640 -43.537 -82.554  0.00  0.00    +0.000 A 
ATOM      8  C   UNL     1     -53.256 -43.386 -82.587  0.00  0.00    +0.000 A 
ATOM      9  C   UNL     1     -52.580 -42.776 -81.523  0.00  0.00    +0.000 A 
ATOM     10 CL   UNL     1     -50.870 -42.614 -81.717  0.00  0.00    +0.000 Cl
ATOM     11  C   UNL     1     -53.301 -42.327 -80.402  0.00  0.00    +0.000 A 
ATOM     12  C   UNL     1     -52.673 -41.736 -79.204  0.00  0.00    +0.000 A 
ATOM     13  O   UNL     1     -51.464 -41.857 -79.040  0.00  0.00    +0.000 OA
ATOM     14  H   UNL     1     -56.413 -42.165 -79.249  0.00  0.00    +0.000 HD
ENDROOT
BRANCH   1  16
ATOM     15  C   UNL     1     -52.834 -38.633 -77.401  0.00  0.00    +0.000 C 
ATOM     16  C   UNL     1     -52.798 -40.148 -77.187  0.00  0.00    +0.000 C 
ATOM     17  O   UNL     1     -52.205 -40.617 -76.241  0.00  0.00    +0.000 OA
ENDBRANCH   1  16
BRANCH   2  18
ATOM     18  S   UNL     1     -56.122 -40.517 -77.129  0.00  0.00    +0.000 S 
ATOM     19  O   UNL     1     -57.435 -40.900 -77.781  0.00  0.00    +0.000 OA
BRANCH  18  20
ATOM     20  C   UNL     1     -56.004 -41.602 -75.640  0.00  0.00    +0.000 C 
BRANCH  20  21
ATOM     21  C   UNL     1     -55.642 -43.029 -75.898  0.00  0.00    +0.000 A 
ATOM     22  C   UNL     1     -54.485 -43.774 -75.563  0.00  0.00    +0.000 A 
ATOM     23  C   UNL     1     -54.762 -45.049 -76.005  0.00  0.00    +0.000 A 
ATOM     24  C   UNL     1     -54.031 -46.324 -75.971  0.00  0.00    +0.000 C 
ATOM     25  O   UNL     1     -55.993 -45.072 -76.574  0.00  0.00    +0.000 OA
ATOM     26  N   UNL     1     -56.553 -43.813 -76.501  0.00  0.00    +0.000 NA
ENDBRANCH  20  21
ENDBRANCH  18  20
ENDBRANCH   2  18
TORSDOF 4
ENDMDL
MODEL 6
REMARK VINA RESULT:    -6.345      4.620      6.516
REMARK INTER + INTRA:          -8.476
REMARK INTER:                  -7.800
REMARK INTRA:                  -0.676
REMARK UNBOUND:                -0.647
REMARK  Name = 
REMARK  6 active torsions:
REMARK  status: ('A' for Active; 'I' for Inactive)
REMARK    1  A    between atoms: C_1  and  C_2
REMARK    2  A    between atoms: C_2  and  C_4
REMARK    3  A    between atoms: C_5  and  S_6
REMARK    4  A    between atoms: S_6  and  C_8
REMARK    5  A    between atoms: C_8  and  C_9
REMARK    6  A    between atoms: C_11  and  C_12
REMARK                            x       y       z     vdW  Elec       q    Type
REMARK                         _______ _______ _______ _____ _____    ______ ____
ROOT
ATOM      1  C   UNL     1     -53.371 -41.273 -78.217  0.00  0.00    +0.000 A 
ATOM      2  C   UNL     1     -54.732 -41.194 -78.359  0.00  0.00    +0.000 A 
ATOM      3  N   UNL     1     -55.341 -41.479 -79.553  0.00  0.00    +0.000 N 
ATOM      4  C   UNL     1     -54.654 -41.702 -80.752  0.00  0.00    +0.000 A 
ATOM      5  C   UNL     1     -55.354 -41.784 -81.973  0.00  0.00    +0.000 A 
ATOM      6 BR   UNL     1     -57.241 -41.551 -82.049  0.00  0.00    +0.000 Br
ATOM      7  C   UNL     1     -54.680 -42.033 -83.163  0.00  0.00    +0.000 A 
ATOM      8  C   UNL     1     -53.295 -42.183 -83.145  0.00  0.00    +0.000 A 
ATOM      9  C   UNL     1     -52.583 -42.082 -81.944  0.00  0.00    +0.000 A 
ATOM     10 CL   UNL     1     -50.867 -42.243 -82.075  0.00  0.00    +0.000 Cl
ATOM     11  C   UNL     1     -53.272 -41.846 -80.740  0.00  0.00    +0.000 A 
ATOM     12  C   UNL     1     -52.619 -41.794 -79.417  0.00  0.00    +0.000 A 
ATOM     13  O   UNL     1     -51.475 -42.217 -79.297  0.00  0.00    +0.000 OA
ATOM     14  H   UNL     1     -56.355 -41.368 -79.599  0.00  0.00    +0.000 HD
ENDROOT
BRANCH   1  16
ATOM     15  C   UNL     1     -52.265 -41.965 -75.952  0.00  0.00    +0.000 C 
ATOM     16  C   UNL     1     -52.553 -40.898 -77.009  0.00  0.00    +0.000 C 
ATOM     17  O   UNL     1     -52.124 -39.773 -76.875  0.00  0.00    +0.000 OA
ENDBRANCH   1  16
BRANCH   2  18
ATOM     18  S   UNL     1     -55.878 -40.538 -77.074  0.00  0.00    +0.000 S 
ATOM     19  O   UNL     1     -57.190 -40.400 -77.818  0.00  0.00    +0.000 OA
BRANCH  18  20
ATOM     20  C   UNL     1     -56.101 -42.024 -76.002  0.00  0.00    +0.000 C 
BRANCH  20  21
ATOM     21  C   UNL     1     -56.476 -41.754 -74.580  0.00  0.00    +0.000 A 
ATOM     22  C   UNL     1     -56.000 -42.309 -73.367  0.00  0.00    +0.000 A 
ATOM     23  C   UNL     1     -56.675 -41.615 -72.387  0.00  0.00    +0.000 A 
ATOM     24  C   UNL     1     -56.664 -41.649 -70.918  0.00  0.00    +0.000 C 
ATOM     25  O   UNL     1     -57.505 -40.711 -72.965  0.00  0.00    +0.000 OA
ATOM     26  N   UNL     1     -57.377 -40.786 -74.337  0.00  0.00    +0.000 NA
ENDBRANCH  20  21
ENDBRANCH  18  20
ENDBRANCH   2  18
TORSDOF 4
ENDMDL
MODEL 7
REMARK VINA RESULT:    -5.985      3.602      6.450
REMARK INTER + INTRA:          -8.031
REMARK INTER:                  -7.449
REMARK INTRA:                  -0.582
REMARK UNBOUND:                -0.647
REMARK  Name = 
REMARK  6 active torsions:
REMARK  status: ('A' for Active; 'I' for Inactive)
REMARK    1  A    between atoms: C_1  and  C_2
REMARK    2  A    between atoms: C_2  and  C_4
REMARK    3  A    between atoms: C_5  and  S_6
REMARK    4  A    between atoms: S_6  and  C_8
REMARK    5  A    between atoms: C_8  and  C_9
REMARK    6  A    between atoms: C_11  and  C_12
REMARK                            x       y       z     vdW  Elec       q    Type
REMARK                         _______ _______ _______ _____ _____    ______ ____
ROOT
ATOM      1  C   UNL     1     -54.760 -42.420 -77.408  0.00  0.00    +0.000 A 
ATOM      2  C   UNL     1     -55.928 -42.816 -78.008  0.00  0.00    +0.000 A 
ATOM      3  N   UNL     1     -56.462 -44.057 -77.778  0.00  0.00    +0.000 N 
ATOM      4  C   UNL     1     -55.808 -45.074 -77.073  0.00  0.00    +0.000 A 
ATOM      5  C   UNL     1     -56.333 -46.383 -77.056  0.00  0.00    +0.000 A 
ATOM      6 BR   UNL     1     -57.911 -46.828 -78.021  0.00  0.00    +0.000 Br
ATOM      7  C   UNL     1     -55.704 -47.391 -76.335  0.00  0.00    +0.000 A 
ATOM      8  C   UNL     1     -54.532 -47.104 -75.638  0.00  0.00    +0.000 A 
ATOM      9  C   UNL     1     -53.987 -45.814 -75.663  0.00  0.00    +0.000 A 
ATOM     10 CL   UNL     1     -52.507 -45.611 -74.793  0.00  0.00    +0.000 Cl
ATOM     11  C   UNL     1     -54.636 -44.794 -76.382  0.00  0.00    +0.000 A 
ATOM     12  C   UNL     1     -54.178 -43.391 -76.410  0.00  0.00    +0.000 A 
ATOM     13  O   UNL     1     -53.351 -43.014 -75.588  0.00  0.00    +0.000 OA
ATOM     14  H   UNL     1     -57.315 -44.299 -78.283  0.00  0.00    +0.000 HD
ENDROOT
BRANCH   1  16
ATOM     15  C   UNL     1     -52.742 -41.171 -78.502  0.00  0.00    +0.000 C 
ATOM     16  C   UNL     1     -54.002 -41.139 -77.636  0.00  0.00    +0.000 C 
ATOM     17  O   UNL     1     -54.382 -40.097 -77.149  0.00  0.00    +0.000 OA
ENDBRANCH   1  16
BRANCH   2  18
ATOM     18  S   UNL     1     -56.813 -41.851 -79.304  0.00  0.00    +0.000 S 
ATOM     19  O   UNL     1     -56.697 -42.731 -80.531  0.00  0.00    +0.000 OA
BRANCH  18  20
ATOM     20  C   UNL     1     -58.565 -42.039 -78.755  0.00  0.00    +0.000 C 
BRANCH  20  21
ATOM     21  C   UNL     1     -59.472 -40.889 -79.055  0.00  0.00    +0.000 A 
ATOM     22  C   UNL     1     -59.854 -39.772 -78.272  0.00  0.00    +0.000 A 
ATOM     23  C   UNL     1     -60.652 -39.026 -79.111  0.00  0.00    +0.000 A 
ATOM     24  C   UNL     1     -61.366 -37.748 -78.974  0.00  0.00    +0.000 C 
ATOM     25  O   UNL     1     -60.753 -39.650 -80.312  0.00  0.00    +0.000 OA
ATOM     26  N   UNL     1     -60.008 -40.811 -80.285  0.00  0.00    +0.000 NA
ENDBRANCH  20  21
ENDBRANCH  18  20
ENDBRANCH   2  18
TORSDOF 4
ENDMDL
MODEL 8
REMARK VINA RESULT:    -5.898     13.292     15.266
REMARK INTER + INTRA:          -7.924
REMARK INTER:                  -7.080
REMARK INTRA:                  -0.844
REMARK UNBOUND:                -0.647
REMARK  Name = 
REMARK  6 active torsions:
REMARK  status: ('A' for Active; 'I' for Inactive)
REMARK    1  A    between atoms: C_1  and  C_2
REMARK    2  A    between atoms: C_2  and  C_4
REMARK    3  A    between atoms: C_5  and  S_6
REMARK    4  A    between atoms: S_6  and  C_8
REMARK    5  A    between atoms: C_8  and  C_9
REMARK    6  A    between atoms: C_11  and  C_12
REMARK                            x       y       z     vdW  Elec       q    Type
REMARK                         _______ _______ _______ _____ _____    ______ ____
ROOT
ATOM      1  C   UNL     1     -57.480 -39.281 -61.391  0.00  0.00    +0.000 A 
ATOM      2  C   UNL     1     -56.604 -40.255 -61.795  0.00  0.00    +0.000 A 
ATOM      3  N   UNL     1     -55.517 -39.956 -62.574  0.00  0.00    +0.000 N 
ATOM      4  C   UNL     1     -55.291 -38.705 -63.159  0.00  0.00    +0.000 A 
ATOM      5  C   UNL     1     -54.263 -38.536 -64.110  0.00  0.00    +0.000 A 
ATOM      6 BR   UNL     1     -53.180 -39.998 -64.666  0.00  0.00    +0.000 Br
ATOM      7  C   UNL     1     -54.016 -37.290 -64.676  0.00  0.00    +0.000 A 
ATOM      8  C   UNL     1     -54.808 -36.204 -64.309  0.00  0.00    +0.000 A 
ATOM      9  C   UNL     1     -55.846 -36.361 -63.383  0.00  0.00    +0.000 A 
ATOM     10 CL   UNL     1     -56.777 -34.941 -63.055  0.00  0.00    +0.000 Cl
ATOM     11  C   UNL     1     -56.082 -37.620 -62.802  0.00  0.00    +0.000 A 
ATOM     12  C   UNL     1     -57.104 -37.868 -61.767  0.00  0.00    +0.000 A 
ATOM     13  O   UNL     1     -57.614 -36.916 -61.187  0.00  0.00    +0.000 OA
ATOM     14  H   UNL     1     -54.923 -40.733 -62.867  0.00  0.00    +0.000 HD
ENDROOT
BRANCH   1  16
ATOM     15  C   UNL     1     -60.093 -39.347 -61.373  0.00  0.00    +0.000 C 
ATOM     16  C   UNL     1     -58.764 -39.465 -60.625  0.00  0.00    +0.000 C 
ATOM     17  O   UNL     1     -58.750 -39.707 -59.438  0.00  0.00    +0.000 OA
ENDBRANCH   1  16
BRANCH   2  18
ATOM     18  S   UNL     1     -56.853 -42.060 -61.521  0.00  0.00    +0.000 S 
ATOM     19  O   UNL     1     -58.296 -42.275 -61.926  0.00  0.00    +0.000 OA
BRANCH  18  20
ATOM     20  C   UNL     1     -55.865 -42.770 -62.910  0.00  0.00    +0.000 C 
BRANCH  20  21
ATOM     21  C   UNL     1     -56.517 -42.747 -64.255  0.00  0.00    +0.000 A 
ATOM     22  C   UNL     1     -57.447 -43.629 -64.858  0.00  0.00    +0.000 A 
ATOM     23  C   UNL     1     -57.728 -43.048 -66.075  0.00  0.00    +0.000 A 
ATOM     24  C   UNL     1     -58.612 -43.398 -67.195  0.00  0.00    +0.000 C 
ATOM     25  O   UNL     1     -57.014 -41.902 -66.203  0.00  0.00    +0.000 OA
ATOM     26  N   UNL     1     -56.262 -41.703 -65.063  0.00  0.00    +0.000 NA
ENDBRANCH  20  21
ENDBRANCH  18  20
ENDBRANCH   2  18
TORSDOF 4
ENDMDL
MODEL 9
REMARK VINA RESULT:    -5.885      4.801      7.221
REMARK INTER + INTRA:          -7.909
REMARK INTER:                  -7.221
REMARK INTRA:                  -0.688
REMARK UNBOUND:                -0.647
REMARK  Name = 
REMARK  6 active torsions:
REMARK  status: ('A' for Active; 'I' for Inactive)
REMARK    1  A    between atoms: C_1  and  C_2
REMARK    2  A    between atoms: C_2  and  C_4
REMARK    3  A    between atoms: C_5  and  S_6
REMARK    4  A    between atoms: S_6  and  C_8
REMARK    5  A    between atoms: C_8  and  C_9
REMARK    6  A    between atoms: C_11  and  C_12
REMARK                            x       y       z     vdW  Elec       q    Type
REMARK                         _______ _______ _______ _____ _____    ______ ____
ROOT
ATOM      1  C   UNL     1     -53.937 -41.792 -79.740  0.00  0.00    +0.000 A 
ATOM      2  C   UNL     1     -54.833 -42.819 -79.591  0.00  0.00    +0.000 A 
ATOM      3  N   UNL     1     -54.932 -43.511 -78.413  0.00  0.00    +0.000 N 
ATOM      4  C   UNL     1     -54.048 -43.364 -77.338  0.00  0.00    +0.000 A 
ATOM      5  C   UNL     1     -54.094 -44.255 -76.246  0.00  0.00    +0.000 A 
ATOM      6 BR   UNL     1     -55.319 -45.710 -76.209  0.00  0.00    +0.000 Br
ATOM      7  C   UNL     1     -53.236 -44.097 -75.163  0.00  0.00    +0.000 A 
ATOM      8  C   UNL     1     -52.311 -43.056 -75.171  0.00  0.00    +0.000 A 
ATOM      9  C   UNL     1     -52.238 -42.176 -76.258  0.00  0.00    +0.000 A 
ATOM     10 CL   UNL     1     -51.013 -40.961 -76.155  0.00  0.00    +0.000 Cl
ATOM     11  C   UNL     1     -53.118 -42.331 -77.344  0.00  0.00    +0.000 A 
ATOM     12  C   UNL     1     -53.165 -41.414 -78.500  0.00  0.00    +0.000 A 
ATOM     13  O   UNL     1     -52.605 -40.326 -78.425  0.00  0.00    +0.000 OA
ATOM     14  H   UNL     1     -55.596 -44.287 -78.380  0.00  0.00    +0.000 HD
ENDROOT
BRANCH   1  16
ATOM     15  C   UNL     1     -54.315 -39.650 -81.191  0.00  0.00    +0.000 C 
ATOM     16  C   UNL     1     -53.642 -41.009 -80.993  0.00  0.00    +0.000 C 
ATOM     17  O   UNL     1     -52.880 -41.442 -81.830  0.00  0.00    +0.000 OA
ENDBRANCH   1  16
BRANCH   2  18
ATOM     18  S   UNL     1     -55.856 -43.517 -80.955  0.00  0.00    +0.000 S 
ATOM     19  O   UNL     1     -56.262 -44.875 -80.424  0.00  0.00    +0.000 OA
BRANCH  18  20
ATOM     20  C   UNL     1     -57.381 -42.485 -80.822  0.00  0.00    +0.000 C 
BRANCH  20  21
ATOM     21  C   UNL     1     -57.600 -41.496 -81.922  0.00  0.00    +0.000 A 
ATOM     22  C   UNL     1     -56.802 -41.150 -83.039  0.00  0.00    +0.000 A 
ATOM     23  C   UNL     1     -57.561 -40.229 -83.727  0.00  0.00    +0.000 A 
ATOM     24  C   UNL     1     -57.370 -39.474 -84.973  0.00  0.00    +0.000 C 
ATOM     25  O   UNL     1     -58.731 -40.027 -83.070  0.00  0.00    +0.000 OA
ATOM     26  N   UNL     1     -58.765 -40.825 -81.944  0.00  0.00    +0.000 NA
ENDBRANCH  20  21
ENDBRANCH  18  20
ENDBRANCH   2  18
TORSDOF 4
ENDMDL
MODEL 10
REMARK VINA RESULT:    -5.882      4.681      7.395
REMARK INTER + INTRA:          -7.904
REMARK INTER:                  -6.906
REMARK INTRA:                  -0.999
REMARK UNBOUND:                -0.647
REMARK  Name = 
REMARK  6 active torsions:
REMARK  status: ('A' for Active; 'I' for Inactive)
REMARK    1  A    between atoms: C_1  and  C_2
REMARK    2  A    between atoms: C_2  and  C_4
REMARK    3  A    between atoms: C_5  and  S_6
REMARK    4  A    between atoms: S_6  and  C_8
REMARK    5  A    between atoms: C_8  and  C_9
REMARK    6  A    between atoms: C_11  and  C_12
REMARK                            x       y       z     vdW  Elec       q    Type
REMARK                         _______ _______ _______ _____ _____    ______ ____
ROOT
ATOM      1  C   UNL     1     -55.388 -41.638 -79.677  0.00  0.00    +0.000 A 
ATOM      2  C   UNL     1     -56.742 -41.700 -79.473  0.00  0.00    +0.000 A 
ATOM      3  N   UNL     1     -57.268 -41.798 -78.211  0.00  0.00    +0.000 N 
ATOM      4  C   UNL     1     -56.504 -42.012 -77.057  0.00  0.00    +0.000 A 
ATOM      5  C   UNL     1     -57.132 -42.306 -75.828  0.00  0.00    +0.000 A 
ATOM      6 BR   UNL     1     -59.023 -42.469 -75.699  0.00  0.00    +0.000 Br
ATOM      7  C   UNL     1     -56.381 -42.492 -74.674  0.00  0.00    +0.000 A 
ATOM      8  C   UNL     1     -54.993 -42.404 -74.740  0.00  0.00    +0.000 A 
ATOM      9  C   UNL     1     -54.353 -42.134 -75.957  0.00  0.00    +0.000 A 
ATOM     10 CL   UNL     1     -52.626 -42.099 -75.902  0.00  0.00    +0.000 Cl
ATOM     11  C   UNL     1     -55.118 -41.932 -77.119  0.00  0.00    +0.000 A 
ATOM     12  C   UNL     1     -54.542 -41.574 -78.430  0.00  0.00    +0.000 A 
ATOM     13  O   UNL     1     -53.381 -41.184 -78.487  0.00  0.00    +0.000 OA
ATOM     14  H   UNL     1     -58.282 -41.875 -78.131  0.00  0.00    +0.000 HD
ENDROOT
BRANCH   1  16
ATOM     15  C   UNL     1     -54.549 -40.315 -81.770  0.00  0.00    +0.000 C 
ATOM     16  C   UNL     1     -54.661 -41.630 -80.997  0.00  0.00    +0.000 C 
ATOM     17  O   UNL     1     -54.167 -42.644 -81.440  0.00  0.00    +0.000 OA
ENDBRANCH   1  16
BRANCH   2  18
ATOM     18  S   UNL     1     -57.994 -41.848 -80.816  0.00  0.00    +0.000 S 
ATOM     19  O   UNL     1     -57.887 -43.301 -81.231  0.00  0.00    +0.000 OA
BRANCH  18  20
ATOM     20  C   UNL     1     -59.565 -41.750 -79.852  0.00  0.00    +0.000 C 
BRANCH  20  21
ATOM     21  C   UNL     1     -60.112 -40.376 -79.631  0.00  0.00    +0.000 A 
ATOM     22  C   UNL     1     -60.965 -39.571 -80.425  0.00  0.00    +0.000 A 
ATOM     23  C   UNL     1     -61.169 -38.440 -79.666  0.00  0.00    +0.000 A 
ATOM     24  C   UNL     1     -61.953 -37.211 -79.853  0.00  0.00    +0.000 C 
ATOM     25  O   UNL     1     -60.483 -38.549 -78.500  0.00  0.00    +0.000 OA
ATOM     26  N   UNL     1     -59.828 -39.763 -78.469  0.00  0.00    +0.000 NA
ENDBRANCH  20  21
ENDBRANCH  18  20
ENDBRANCH   2  18
TORSDOF 4
ENDMDL
MODEL 11
REMARK VINA RESULT:    -5.832     13.070     15.127
REMARK INTER + INTRA:          -7.843
REMARK INTER:                  -6.870
REMARK INTRA:                  -0.973
REMARK UNBOUND:                -0.647
REMARK  Name = 
REMARK  6 active torsions:
REMARK  status: ('A' for Active; 'I' for Inactive)
REMARK    1  A    between atoms: C_1  and  C_2
REMARK    2  A    between atoms: C_2  and  C_4
REMARK    3  A    between atoms: C_5  and  S_6
REMARK    4  A    between atoms: S_6  and  C_8
REMARK    5  A    between atoms: C_8  and  C_9
REMARK    6  A    between atoms: C_11  and  C_12
REMARK                            x       y       z     vdW  Elec       q    Type
REMARK                         _______ _______ _______ _____ _____    ______ ____
ROOT
ATOM      1  C   UNL     1     -55.304 -40.499 -63.754  0.00  0.00    +0.000 A 
ATOM      2  C   UNL     1     -55.905 -41.305 -62.822  0.00  0.00    +0.000 A 
ATOM      3  N   UNL     1     -56.732 -40.787 -61.860  0.00  0.00    +0.000 N 
ATOM      4  C   UNL     1     -56.906 -39.418 -61.628  0.00  0.00    +0.000 A 
ATOM      5  C   UNL     1     -57.611 -38.968 -60.492  0.00  0.00    +0.000 A 
ATOM      6 BR   UNL     1     -58.308 -40.192 -59.214  0.00  0.00    +0.000 Br
ATOM      7  C   UNL     1     -57.809 -37.610 -60.271  0.00  0.00    +0.000 A 
ATOM      8  C   UNL     1     -57.289 -36.687 -61.175  0.00  0.00    +0.000 A 
ATOM      9  C   UNL     1     -56.568 -37.117 -62.297  0.00  0.00    +0.000 A 
ATOM     10 CL   UNL     1     -55.942 -35.864 -63.309  0.00  0.00    +0.000 Cl
ATOM     11  C   UNL     1     -56.383 -38.493 -62.524  0.00  0.00    +0.000 A 
ATOM     12  C   UNL     1     -55.701 -39.044 -63.711  0.00  0.00    +0.000 A 
ATOM     13  O   UNL     1     -55.498 -38.317 -64.677  0.00  0.00    +0.000 OA
ATOM     14  H   UNL     1     -57.120 -41.439 -61.177  0.00  0.00    +0.000 HD
ENDROOT
BRANCH   1  16
ATOM     15  C   UNL     1     -52.813 -40.668 -64.528  0.00  0.00    +0.000 C 
ATOM     16  C   UNL     1     -54.299 -40.902 -64.801  0.00  0.00    +0.000 C 
ATOM     17  O   UNL     1     -54.657 -41.409 -65.842  0.00  0.00    +0.000 OA
ENDBRANCH   1  16
BRANCH   2  18
ATOM     18  S   UNL     1     -55.555 -43.102 -62.616  0.00  0.00    +0.000 S 
ATOM     19  O   UNL     1     -55.503 -43.275 -61.112  0.00  0.00    +0.000 OA
BRANCH  18  20
ATOM     20  C   UNL     1     -57.171 -43.841 -63.118  0.00  0.00    +0.000 C 
BRANCH  20  21
ATOM     21  C   UNL     1     -57.809 -43.253 -64.335  0.00  0.00    +0.000 A 
ATOM     22  C   UNL     1     -57.672 -43.572 -65.708  0.00  0.00    +0.000 A 
ATOM     23  C   UNL     1     -58.561 -42.733 -66.343  0.00  0.00    +0.000 A 
ATOM     24  C   UNL     1     -58.956 -42.534 -67.744  0.00  0.00    +0.000 C 
ATOM     25  O   UNL     1     -59.185 -41.957 -65.422  0.00  0.00    +0.000 OA
ATOM     26  N   UNL     1     -58.726 -42.285 -64.162  0.00  0.00    +0.000 NA
ENDBRANCH  20  21
ENDBRANCH  18  20
ENDBRANCH   2  18
TORSDOF 4
ENDMDL
MODEL 12
REMARK VINA RESULT:    -5.814     14.576     15.717
REMARK INTER + INTRA:          -7.821
REMARK INTER:                  -6.944
REMARK INTRA:                  -0.877
REMARK UNBOUND:                -0.647
REMARK  Name = 
REMARK  6 active torsions:
REMARK  status: ('A' for Active; 'I' for Inactive)
REMARK    1  A    between atoms: C_1  and  C_2
REMARK    2  A    between atoms: C_2  and  C_4
REMARK    3  A    between atoms: C_5  and  S_6
REMARK    4  A    between atoms: S_6  and  C_8
REMARK    5  A    between atoms: C_8  and  C_9
REMARK    6  A    between atoms: C_11  and  C_12
REMARK                            x       y       z     vdW  Elec       q    Type
REMARK                         _______ _______ _______ _____ _____    ______ ____
ROOT
ATOM      1  C   UNL     1     -56.403 -42.133 -62.730  0.00  0.00    +0.000 A 
ATOM      2  C   UNL     1     -56.846 -41.525 -61.584  0.00  0.00    +0.000 A 
ATOM      3  N   UNL     1     -56.341 -41.866 -60.356  0.00  0.00    +0.000 N 
ATOM      4  C   UNL     1     -55.480 -42.947 -60.134  0.00  0.00    +0.000 A 
ATOM      5  C   UNL     1     -55.169 -43.355 -58.820  0.00  0.00    +0.000 A 
ATOM      6 BR   UNL     1     -55.937 -42.491 -57.309  0.00  0.00    +0.000 Br
ATOM      7  C   UNL     1     -54.294 -44.411 -58.593  0.00  0.00    +0.000 A 
ATOM      8  C   UNL     1     -53.735 -45.081 -59.679  0.00  0.00    +0.000 A 
ATOM      9  C   UNL     1     -54.051 -44.701 -60.990  0.00  0.00    +0.000 A 
ATOM     10 CL   UNL     1     -53.322 -45.648 -62.239  0.00  0.00    +0.000 Cl
ATOM     11  C   UNL     1     -54.925 -43.623 -61.214  0.00  0.00    +0.000 A 
ATOM     12  C   UNL     1     -55.262 -43.104 -62.554  0.00  0.00    +0.000 A 
ATOM     13  O   UNL     1     -54.579 -43.440 -63.516  0.00  0.00    +0.000 OA
ATOM     14  H   UNL     1     -56.739 -41.398 -59.541  0.00  0.00    +0.000 HD
ENDROOT
BRANCH   1  16
ATOM     15  C   UNL     1     -56.342 -40.820 -64.990  0.00  0.00    +0.000 C 
ATOM     16  C   UNL     1     -56.928 -41.941 -64.129  0.00  0.00    +0.000 C 
ATOM     17  O   UNL     1     -57.794 -42.663 -64.572  0.00  0.00    +0.000 OA
ENDBRANCH   1  16
BRANCH   2  18
ATOM     18  S   UNL     1     -58.261 -40.348 -61.508  0.00  0.00    +0.000 S 
ATOM     19  O   UNL     1     -59.027 -40.805 -60.283  0.00  0.00    +0.000 OA
BRANCH  18  20
ATOM     20  C   UNL     1     -57.409 -38.799 -60.977  0.00  0.00    +0.000 C 
BRANCH  20  21
ATOM     21  C   UNL     1     -56.518 -38.160 -61.994  0.00  0.00    +0.000 A 
ATOM     22  C   UNL     1     -55.247 -38.538 -62.491  0.00  0.00    +0.000 A 
ATOM     23  C   UNL     1     -54.965 -37.596 -63.456  0.00  0.00    +0.000 A 
ATOM     24  C   UNL     1     -53.843 -37.384 -64.380  0.00  0.00    +0.000 C 
ATOM     25  O   UNL     1     -55.988 -36.708 -63.532  0.00  0.00    +0.000 OA
ATOM     26  N   UNL     1     -56.967 -37.062 -62.626  0.00  0.00    +0.000 NA
ENDBRANCH  20  21
ENDBRANCH  18  20
ENDBRANCH   2  18
TORSDOF 4
ENDMDL
MODEL 13
REMARK VINA RESULT:    -5.812     13.869     15.588
REMARK INTER + INTRA:          -7.818
REMARK INTER:                  -7.084
REMARK INTRA:                  -0.735
REMARK UNBOUND:                -0.647
REMARK  Name = 
REMARK  6 active torsions:
REMARK  status: ('A' for Active; 'I' for Inactive)
REMARK    1  A    between atoms: C_1  and  C_2
REMARK    2  A    between atoms: C_2  and  C_4
REMARK    3  A    between atoms: C_5  and  S_6
REMARK    4  A    between atoms: S_6  and  C_8
REMARK    5  A    between atoms: C_8  and  C_9
REMARK    6  A    between atoms: C_11  and  C_12
REMARK                            x       y       z     vdW  Elec       q    Type
REMARK                         _______ _______ _______ _____ _____    ______ ____
ROOT
ATOM      1  C   UNL     1     -58.885 -39.001 -62.095  0.00  0.00    +0.000 A 
ATOM      2  C   UNL     1     -57.806 -39.641 -62.647  0.00  0.00    +0.000 A 
ATOM      3  N   UNL     1     -56.662 -38.960 -62.969  0.00  0.00    +0.000 N 
ATOM      4  C   UNL     1     -56.541 -37.566 -62.931  0.00  0.00    +0.000 A 
ATOM      5  C   UNL     1     -55.403 -36.932 -63.471  0.00  0.00    +0.000 A 
ATOM      6 BR   UNL     1     -54.018 -37.932 -64.308  0.00  0.00    +0.000 Br
ATOM      7  C   UNL     1     -55.265 -35.550 -63.412  0.00  0.00    +0.000 A 
ATOM      8  C   UNL     1     -56.273 -34.787 -62.828  0.00  0.00    +0.000 A 
ATOM      9  C   UNL     1     -57.419 -35.400 -62.307  0.00  0.00    +0.000 A 
ATOM     10 CL   UNL     1     -58.609 -34.329 -61.654  0.00  0.00    +0.000 Cl
ATOM     11  C   UNL     1     -57.547 -36.800 -62.355  0.00  0.00    +0.000 A 
ATOM     12  C   UNL     1     -58.682 -37.541 -61.771  0.00  0.00    +0.000 A 
ATOM     13  O   UNL     1     -59.432 -36.969 -60.988  0.00  0.00    +0.000 OA
ATOM     14  H   UNL     1     -55.909 -39.491 -63.408  0.00  0.00    +0.000 HD
ENDROOT
BRANCH   1  16
ATOM     15  C   UNL     1     -60.411 -40.396 -60.496  0.00  0.00    +0.000 C 
ATOM     16  C   UNL     1     -60.237 -39.588 -61.783  0.00  0.00    +0.000 C 
ATOM     17  O   UNL     1     -61.175 -39.420 -62.531  0.00  0.00    +0.000 OA
ENDBRANCH   1  16
BRANCH   2  18
ATOM     18  S   UNL     1     -57.805 -41.401 -63.191  0.00  0.00    +0.000 S 
ATOM     19  O   UNL     1     -58.968 -41.465 -64.159  0.00  0.00    +0.000 OA
BRANCH  18  20
ATOM     20  C   UNL     1     -56.301 -41.443 -64.261  0.00  0.00    +0.000 C 
BRANCH  20  21
ATOM     21  C   UNL     1     -55.203 -42.353 -63.812  0.00  0.00    +0.000 A 
ATOM     22  C   UNL     1     -53.799 -42.276 -63.980  0.00  0.00    +0.000 A 
ATOM     23  C   UNL     1     -53.314 -43.365 -63.290  0.00  0.00    +0.000 A 
ATOM     24  C   UNL     1     -51.967 -43.890 -63.024  0.00  0.00    +0.000 C 
ATOM     25  O   UNL     1     -54.350 -44.056 -62.751  0.00  0.00    +0.000 OA
ATOM     26  N   UNL     1     -55.534 -43.422 -63.066  0.00  0.00    +0.000 NA
ENDBRANCH  20  21
ENDBRANCH  18  20
ENDBRANCH   2  18
TORSDOF 4
ENDMDL
MODEL 14
REMARK VINA RESULT:    -5.677      3.834      7.186
REMARK INTER + INTRA:          -7.652
REMARK INTER:                  -6.676
REMARK INTRA:                  -0.976
REMARK UNBOUND:                -0.647
REMARK  Name = 
REMARK  6 active torsions:
REMARK  status: ('A' for Active; 'I' for Inactive)
REMARK    1  A    between atoms: C_1  and  C_2
REMARK    2  A    between atoms: C_2  and  C_4
REMARK    3  A    between atoms: C_5  and  S_6
REMARK    4  A    between atoms: S_6  and  C_8
REMARK    5  A    between atoms: C_8  and  C_9
REMARK    6  A    between atoms: C_11  and  C_12
REMARK                            x       y       z     vdW  Elec       q    Type
REMARK                         _______ _______ _______ _____ _____    ______ ____
ROOT
ATOM      1  C   UNL     1     -53.963 -41.943 -79.720  0.00  0.00    +0.000 A 
ATOM      2  C   UNL     1     -54.870 -42.939 -79.469  0.00  0.00    +0.000 A 
ATOM      3  N   UNL     1     -54.922 -43.564 -78.250  0.00  0.00    +0.000 N 
ATOM      4  C   UNL     1     -53.978 -43.380 -77.233  0.00  0.00    +0.000 A 
ATOM      5  C   UNL     1     -53.985 -44.211 -76.092  0.00  0.00    +0.000 A 
ATOM      6 BR   UNL     1     -55.237 -45.632 -75.912  0.00  0.00    +0.000 Br
ATOM      7  C   UNL     1     -53.067 -44.015 -75.067  0.00  0.00    +0.000 A 
ATOM      8  C   UNL     1     -52.122 -42.999 -75.180  0.00  0.00    +0.000 A 
ATOM      9  C   UNL     1     -52.088 -42.181 -76.316  0.00  0.00    +0.000 A 
ATOM     10 CL   UNL     1     -50.834 -40.991 -76.344  0.00  0.00    +0.000 Cl
ATOM     11  C   UNL     1     -53.028 -42.372 -77.344  0.00  0.00    +0.000 A 
ATOM     12  C   UNL     1     -53.118 -41.518 -78.545  0.00  0.00    +0.000 A 
ATOM     13  O   UNL     1     -52.531 -40.442 -78.559  0.00  0.00    +0.000 OA
ATOM     14  H   UNL     1     -55.598 -44.321 -78.141  0.00  0.00    +0.000 HD
ENDROOT
BRANCH   1  16
ATOM     15  C   UNL     1     -54.565 -40.011 -81.375  0.00  0.00    +0.000 C 
ATOM     16  C   UNL     1     -53.718 -41.237 -81.028  0.00  0.00    +0.000 C 
ATOM     17  O   UNL     1     -52.862 -41.624 -81.793  0.00  0.00    +0.000 OA
ENDBRANCH   1  16
BRANCH   2  18
ATOM     18  S   UNL     1     -55.979 -43.684 -80.737  0.00  0.00    +0.000 S 
ATOM     19  O   UNL     1     -55.011 -44.304 -81.723  0.00  0.00    +0.000 OA
BRANCH  18  20
ATOM     20  C   UNL     1     -56.679 -45.115 -79.804  0.00  0.00    +0.000 C 
BRANCH  20  21
ATOM     21  C   UNL     1     -57.965 -44.862 -79.085  0.00  0.00    +0.000 A 
ATOM     22  C   UNL     1     -59.281 -45.318 -79.337  0.00  0.00    +0.000 A 
ATOM     23  C   UNL     1     -60.024 -44.805 -78.296  0.00  0.00    +0.000 A 
ATOM     24  C   UNL     1     -61.439 -44.893 -77.910  0.00  0.00    +0.000 C 
ATOM     25  O   UNL     1     -59.217 -44.083 -77.479  0.00  0.00    +0.000 OA
ATOM     26  N   UNL     1     -57.925 -44.124 -77.962  0.00  0.00    +0.000 NA
ENDBRANCH  20  21
ENDBRANCH  18  20
ENDBRANCH   2  18
TORSDOF 4
ENDMDL
MODEL 15
REMARK VINA RESULT:    -5.545     21.659     23.261
REMARK INTER + INTRA:          -7.489
REMARK INTER:                  -6.910
REMARK INTRA:                  -0.579
REMARK UNBOUND:                -0.647
REMARK  Name = 
REMARK  6 active torsions:
REMARK  status: ('A' for Active; 'I' for Inactive)
REMARK    1  A    between atoms: C_1  and  C_2
REMARK    2  A    between atoms: C_2  and  C_4
REMARK    3  A    between atoms: C_5  and  S_6
REMARK    4  A    between atoms: S_6  and  C_8
REMARK    5  A    between atoms: C_8  and  C_9
REMARK    6  A    between atoms: C_11  and  C_12
REMARK                            x       y       z     vdW  Elec       q    Type
REMARK                         _______ _______ _______ _____ _____    ______ ____
ROOT
ATOM      1  C   UNL     1     -49.749 -25.456 -62.075  0.00  0.00    +0.000 A 
ATOM      2  C   UNL     1     -48.556 -25.844 -62.627  0.00  0.00    +0.000 A 
ATOM      3  N   UNL     1     -48.027 -25.191 -63.710  0.00  0.00    +0.000 N 
ATOM      4  C   UNL     1     -48.705 -24.211 -64.443  0.00  0.00    +0.000 A 
ATOM      5  C   UNL     1     -48.175 -23.735 -65.661  0.00  0.00    +0.000 A 
ATOM      6 BR   UNL     1     -46.557 -24.435 -66.376  0.00  0.00    +0.000 Br
ATOM      7  C   UNL     1     -48.830 -22.742 -66.380  0.00  0.00    +0.000 A 
ATOM      8  C   UNL     1     -50.030 -22.227 -65.897  0.00  0.00    +0.000 A 
ATOM      9  C   UNL     1     -50.580 -22.704 -64.701  0.00  0.00    +0.000 A 
ATOM     10 CL   UNL     1     -52.095 -22.009 -64.244  0.00  0.00    +0.000 Cl
ATOM     11  C   UNL     1     -49.906 -23.698 -63.969  0.00  0.00    +0.000 A 
ATOM     12  C   UNL     1     -50.368 -24.213 -62.665  0.00  0.00    +0.000 A 
ATOM     13  O   UNL     1     -51.230 -23.596 -62.049  0.00  0.00    +0.000 OA
ATOM     14  H   UNL     1     -47.153 -25.553 -64.093  0.00  0.00    +0.000 HD
ENDROOT
BRANCH   1  16
ATOM     15  C   UNL     1     -51.656 -27.072 -61.308  0.00  0.00    +0.000 C 
ATOM     16  C   UNL     1     -50.503 -26.130 -60.958  0.00  0.00    +0.000 C 
ATOM     17  O   UNL     1     -50.202 -25.936 -59.800  0.00  0.00    +0.000 OA
ENDBRANCH   1  16
BRANCH   2  18
ATOM     18  S   UNL     1     -47.622 -27.355 -62.137  0.00  0.00    +0.000 S 
ATOM     19  O   UNL     1     -48.635 -28.465 -62.327  0.00  0.00    +0.000 OA
BRANCH  18  20
ATOM     20  C   UNL     1     -46.459 -27.533 -63.560  0.00  0.00    +0.000 C 
BRANCH  20  21
ATOM     21  C   UNL     1     -45.581 -28.743 -63.539  0.00  0.00    +0.000 A 
ATOM     22  C   UNL     1     -45.606 -29.901 -62.724  0.00  0.00    +0.000 A 
ATOM     23  C   UNL     1     -44.591 -30.689 -63.222  0.00  0.00    +0.000 A 
ATOM     24  C   UNL     1     -44.069 -32.019 -62.880  0.00  0.00    +0.000 C 
ATOM     25  O   UNL     1     -43.990 -30.050 -64.257  0.00  0.00    +0.000 OA
ATOM     26  N   UNL     1     -44.612 -28.836 -64.466  0.00  0.00    +0.000 NA
ENDBRANCH  20  21
ENDBRANCH  18  20
ENDBRANCH   2  18
TORSDOF 4
ENDMDL
MODEL 16
REMARK VINA RESULT:    -5.433     26.769     28.703
REMARK INTER + INTRA:          -7.350
REMARK INTER:                  -7.156
REMARK INTRA:                  -0.194
REMARK UNBOUND:                -0.647
REMARK  Name = 
REMARK  6 active torsions:
REMARK  status: ('A' for Active; 'I' for Inactive)
REMARK    1  A    between atoms: C_1  and  C_2
REMARK    2  A    between atoms: C_2  and  C_4
REMARK    3  A    between atoms: C_5  and  S_6
REMARK    4  A    between atoms: S_6  and  C_8
REMARK    5  A    between atoms: C_8  and  C_9
REMARK    6  A    between atoms: C_11  and  C_12
REMARK                            x       y       z     vdW  Elec       q    Type
REMARK                         _______ _______ _______ _____ _____    ______ ____
ROOT
ATOM      1  C   UNL     1     -66.395 -52.222 -53.077  0.00  0.00    +0.000 A 
ATOM      2  C   UNL     1     -67.239 -52.207 -54.158  0.00  0.00    +0.000 A 
ATOM      3  N   UNL     1     -67.256 -51.153 -55.033  0.00  0.00    +0.000 N 
ATOM      4  C   UNL     1     -66.567 -49.952 -54.829  0.00  0.00    +0.000 A 
ATOM      5  C   UNL     1     -66.798 -48.843 -55.670  0.00  0.00    +0.000 A 
ATOM      6 BR   UNL     1     -68.078 -48.918 -57.075  0.00  0.00    +0.000 Br
ATOM      7  C   UNL     1     -66.096 -47.656 -55.489  0.00  0.00    +0.000 A 
ATOM      8  C   UNL     1     -65.170 -47.561 -54.453  0.00  0.00    +0.000 A 
ATOM      9  C   UNL     1     -64.946 -48.645 -53.596  0.00  0.00    +0.000 A 
ATOM     10 CL   UNL     1     -63.804 -48.372 -52.327  0.00  0.00    +0.000 Cl
ATOM     11  C   UNL     1     -65.646 -49.849 -53.793  0.00  0.00    +0.000 A 
ATOM     12  C   UNL     1     -65.428 -51.067 -52.988  0.00  0.00    +0.000 A 
ATOM     13  O   UNL     1     -64.431 -51.146 -52.280  0.00  0.00    +0.000 OA
ATOM     14  H   UNL     1     -67.932 -51.190 -55.797  0.00  0.00    +0.000 HD
ENDROOT
BRANCH   1  16
ATOM     15  C   UNL     1     -67.124 -53.010 -50.694  0.00  0.00    +0.000 C 
ATOM     16  C   UNL     1     -66.331 -53.252 -51.980  0.00  0.00    +0.000 C 
ATOM     17  O   UNL     1     -65.670 -54.258 -52.110  0.00  0.00    +0.000 OA
ENDBRANCH   1  16
BRANCH   2  18
ATOM     18  S   UNL     1     -68.553 -53.459 -54.472  0.00  0.00    +0.000 S 
ATOM     19  O   UNL     1     -67.912 -54.755 -54.018  0.00  0.00    +0.000 OA
BRANCH  18  20
ATOM     20  C   UNL     1     -69.766 -53.046 -53.143  0.00  0.00    +0.000 C 
BRANCH  20  21
ATOM     21  C   UNL     1     -71.173 -53.490 -53.381  0.00  0.00    +0.000 A 
ATOM     22  C   UNL     1     -71.756 -54.214 -54.449  0.00  0.00    +0.000 A 
ATOM     23  C   UNL     1     -73.071 -54.376 -54.073  0.00  0.00    +0.000 A 
ATOM     24  C   UNL     1     -74.234 -55.040 -54.680  0.00  0.00    +0.000 C 
ATOM     25  O   UNL     1     -73.272 -53.785 -52.868  0.00  0.00    +0.000 OA
ATOM     26  N   UNL     1     -72.085 -53.238 -52.426  0.00  0.00    +0.000 NA
ENDBRANCH  20  21
ENDBRANCH  18  20
ENDBRANCH   2  18
TORSDOF 4
ENDMDL
MODEL 17
REMARK VINA RESULT:    -5.421     25.947     27.762
REMARK INTER + INTRA:          -7.336
REMARK INTER:                  -6.276
REMARK INTRA:                  -1.060
REMARK UNBOUND:                -0.647
REMARK  Name = 
REMARK  6 active torsions:
REMARK  status: ('A' for Active; 'I' for Inactive)
REMARK    1  A    between atoms: C_1  and  C_2
REMARK    2  A    between atoms: C_2  and  C_4
REMARK    3  A    between atoms: C_5  and  S_6
REMARK    4  A    between atoms: S_6  and  C_8
REMARK    5  A    between atoms: C_8  and  C_9
REMARK    6  A    between atoms: C_11  and  C_12
REMARK                            x       y       z     vdW  Elec       q    Type
REMARK                         _______ _______ _______ _____ _____    ______ ____
ROOT
ATOM      1  C   UNL     1     -66.371 -51.881 -53.165  0.00  0.00    +0.000 A 
ATOM      2  C   UNL     1     -67.196 -51.861 -54.260  0.00  0.00    +0.000 A 
ATOM      3  N   UNL     1     -67.180 -50.814 -55.144  0.00  0.00    +0.000 N 
ATOM      4  C   UNL     1     -66.474 -49.623 -54.938  0.00  0.00    +0.000 A 
ATOM      5  C   UNL     1     -66.672 -48.518 -55.792  0.00  0.00    +0.000 A 
ATOM      6 BR   UNL     1     -67.929 -48.583 -57.218  0.00  0.00    +0.000 Br
ATOM      7  C   UNL     1     -65.953 -47.342 -55.609  0.00  0.00    +0.000 A 
ATOM      8  C   UNL     1     -65.043 -47.253 -54.559  0.00  0.00    +0.000 A 
ATOM      9  C   UNL     1     -64.852 -48.334 -53.689  0.00  0.00    +0.000 A 
ATOM     10 CL   UNL     1     -63.727 -48.070 -52.404  0.00  0.00    +0.000 Cl
ATOM     11  C   UNL     1     -65.570 -49.527 -53.887  0.00  0.00    +0.000 A 
ATOM     12  C   UNL     1     -65.386 -50.742 -53.069  0.00  0.00    +0.000 A 
ATOM     13  O   UNL     1     -64.402 -50.832 -52.343  0.00  0.00    +0.000 OA
ATOM     14  H   UNL     1     -67.844 -50.846 -55.919  0.00  0.00    +0.000 HD
ENDROOT
BRANCH   1  16
ATOM     15  C   UNL     1     -65.682 -54.256 -52.320  0.00  0.00    +0.000 C 
ATOM     16  C   UNL     1     -66.343 -52.902 -52.058  0.00  0.00    +0.000 C 
ATOM     17  O   UNL     1     -66.830 -52.659 -50.976  0.00  0.00    +0.000 OA
ENDBRANCH   1  16
BRANCH   2  18
ATOM     18  S   UNL     1     -68.526 -53.093 -54.586  0.00  0.00    +0.000 S 
ATOM     19  O   UNL     1     -69.425 -52.962 -53.374  0.00  0.00    +0.000 OA
BRANCH  18  20
ATOM     20  C   UNL     1     -69.454 -52.265 -55.950  0.00  0.00    +0.000 C 
BRANCH  20  21
ATOM     21  C   UNL     1     -70.632 -51.443 -55.535  0.00  0.00    +0.000 A 
ATOM     22  C   UNL     1     -72.016 -51.742 -55.507  0.00  0.00    +0.000 A 
ATOM     23  C   UNL     1     -72.597 -50.616 -54.966  0.00  0.00    +0.000 A 
ATOM     24  C   UNL     1     -73.976 -50.238 -54.631  0.00  0.00    +0.000 C 
ATOM     25  O   UNL     1     -71.635 -49.698 -54.695  0.00  0.00    +0.000 OA
ATOM     26  N   UNL     1     -70.402 -50.214 -55.039  0.00  0.00    +0.000 NA
ENDBRANCH  20  21
ENDBRANCH  18  20
ENDBRANCH   2  18
TORSDOF 4
ENDMDL
MODEL 18
REMARK VINA RESULT:    -5.324     15.092     16.825
REMARK INTER + INTRA:          -7.216
REMARK INTER:                  -6.473
REMARK INTRA:                  -0.744
REMARK UNBOUND:                -0.647
REMARK  Name = 
REMARK  6 active torsions:
REMARK  status: ('A' for Active; 'I' for Inactive)
REMARK    1  A    between atoms: C_1  and  C_2
REMARK    2  A    between atoms: C_2  and  C_4
REMARK    3  A    between atoms: C_5  and  S_6
REMARK    4  A    between atoms: S_6  and  C_8
REMARK    5  A    between atoms: C_8  and  C_9
REMARK    6  A    between atoms: C_11  and  C_12
REMARK                            x       y       z     vdW  Elec       q    Type
REMARK                         _______ _______ _______ _____ _____    ______ ____
ROOT
ATOM      1  C   UNL     1     -56.841 -37.565 -62.229  0.00  0.00    +0.000 A 
ATOM      2  C   UNL     1     -57.463 -36.448 -61.735  0.00  0.00    +0.000 A 
ATOM      3  N   UNL     1     -58.801 -36.450 -61.440  0.00  0.00    +0.000 N 
ATOM      4  C   UNL     1     -59.675 -37.495 -61.761  0.00  0.00    +0.000 A 
ATOM      5  C   UNL     1     -61.068 -37.335 -61.610  0.00  0.00    +0.000 A 
ATOM      6 BR   UNL     1     -61.815 -35.691 -61.013  0.00  0.00    +0.000 Br
ATOM      7  C   UNL     1     -61.938 -38.379 -61.902  0.00  0.00    +0.000 A 
ATOM      8  C   UNL     1     -61.425 -39.588 -62.366  0.00  0.00    +0.000 A 
ATOM      9  C   UNL     1     -60.045 -39.755 -62.542  0.00  0.00    +0.000 A 
ATOM     10 CL   UNL     1     -59.552 -41.289 -63.167  0.00  0.00    +0.000 Cl
ATOM     11  C   UNL     1     -59.168 -38.701 -62.231  0.00  0.00    +0.000 A 
ATOM     12  C   UNL     1     -57.698 -38.805 -62.316  0.00  0.00    +0.000 A 
ATOM     13  O   UNL     1     -57.180 -39.911 -62.416  0.00  0.00    +0.000 OA
ATOM     14  H   UNL     1     -59.208 -35.575 -61.107  0.00  0.00    +0.000 HD
ENDROOT
BRANCH   1  16
ATOM     15  C   UNL     1     -55.107 -37.556 -64.185  0.00  0.00    +0.000 C 
ATOM     16  C   UNL     1     -55.413 -37.689 -62.692  0.00  0.00    +0.000 C 
ATOM     17  O   UNL     1     -54.517 -37.885 -61.900  0.00  0.00    +0.000 OA
ENDBRANCH   1  16
BRANCH   2  18
ATOM     18  S   UNL     1     -56.667 -34.794 -61.581  0.00  0.00    +0.000 S 
ATOM     19  O   UNL     1     -56.244 -34.480 -63.001  0.00  0.00    +0.000 OA
BRANCH  18  20
ATOM     20  C   UNL     1     -58.137 -33.717 -61.281  0.00  0.00    +0.000 C 
BRANCH  20  21
ATOM     21  C   UNL     1     -58.398 -32.665 -62.311  0.00  0.00    +0.000 A 
ATOM     22  C   UNL     1     -59.045 -32.731 -63.570  0.00  0.00    +0.000 A 
ATOM     23  C   UNL     1     -59.036 -31.431 -64.025  0.00  0.00    +0.000 A 
ATOM     24  C   UNL     1     -59.547 -30.767 -65.232  0.00  0.00    +0.000 C 
ATOM     25  O   UNL     1     -58.422 -30.637 -63.111  0.00  0.00    +0.000 OA
ATOM     26  N   UNL     1     -58.030 -31.403 -62.033  0.00  0.00    +0.000 NA
ENDBRANCH  20  21
ENDBRANCH  18  20
ENDBRANCH   2  18
TORSDOF 4
ENDMDL
MODEL 19
REMARK VINA RESULT:    -5.196     14.256     16.307
REMARK INTER + INTRA:          -7.059
REMARK INTER:                  -6.267
REMARK INTRA:                  -0.792
REMARK UNBOUND:                -0.647
REMARK  Name = 
REMARK  6 active torsions:
REMARK  status: ('A' for Active; 'I' for Inactive)
REMARK    1  A    between atoms: C_1  and  C_2
REMARK    2  A    between atoms: C_2  and  C_4
REMARK    3  A    between atoms: C_5  and  S_6
REMARK    4  A    between atoms: S_6  and  C_8
REMARK    5  A    between atoms: C_8  and  C_9
REMARK    6  A    between atoms: C_11  and  C_12
REMARK                            x       y       z     vdW  Elec       q    Type
REMARK                         _______ _______ _______ _____ _____    ______ ____
ROOT
ATOM      1  C   UNL     1     -56.848 -35.701 -62.555  0.00  0.00    +0.000 A 
ATOM      2  C   UNL     1     -57.175 -37.028 -62.453  0.00  0.00    +0.000 A 
ATOM      3  N   UNL     1     -58.476 -37.431 -62.298  0.00  0.00    +0.000 N 
ATOM      4  C   UNL     1     -59.545 -36.558 -62.063  0.00  0.00    +0.000 A 
ATOM      5  C   UNL     1     -60.815 -37.062 -61.712  0.00  0.00    +0.000 A 
ATOM      6 BR   UNL     1     -61.114 -38.928 -61.498  0.00  0.00    +0.000 Br
ATOM      7  C   UNL     1     -61.887 -36.201 -61.504  0.00  0.00    +0.000 A 
ATOM      8  C   UNL     1     -61.695 -34.828 -61.628  0.00  0.00    +0.000 A 
ATOM      9  C   UNL     1     -60.435 -34.311 -61.955  0.00  0.00    +0.000 A 
ATOM     10 CL   UNL     1     -60.330 -32.588 -62.030  0.00  0.00    +0.000 Cl
ATOM     11  C   UNL     1     -59.357 -35.186 -62.179  0.00  0.00    +0.000 A 
ATOM     12  C   UNL     1     -58.013 -34.743 -62.596  0.00  0.00    +0.000 A 
ATOM     13  O   UNL     1     -57.862 -33.601 -63.015  0.00  0.00    +0.000 OA
ATOM     14  H   UNL     1     -58.647 -38.432 -62.194  0.00  0.00    +0.000 HD
ENDROOT
BRANCH   1  16
ATOM     15  C   UNL     1     -54.862 -34.490 -61.362  0.00  0.00    +0.000 C 
ATOM     16  C   UNL     1     -55.468 -35.102 -62.626  0.00  0.00    +0.000 C 
ATOM     17  O   UNL     1     -54.841 -35.106 -63.663  0.00  0.00    +0.000 OA
ENDBRANCH   1  16
BRANCH   2  18
ATOM     18  S   UNL     1     -55.950 -38.398 -62.321  0.00  0.00    +0.000 S 
ATOM     19  O   UNL     1     -55.494 -38.318 -60.879  0.00  0.00    +0.000 OA
BRANCH  18  20
ATOM     20  C   UNL     1     -57.057 -39.874 -62.382  0.00  0.00    +0.000 C 
BRANCH  20  21
ATOM     21  C   UNL     1     -57.274 -40.474 -63.734  0.00  0.00    +0.000 A 
ATOM     22  C   UNL     1     -56.514 -40.388 -64.927  0.00  0.00    +0.000 A 
ATOM     23  C   UNL     1     -57.181 -41.205 -65.814  0.00  0.00    +0.000 A 
ATOM     24  C   UNL     1     -56.950 -41.601 -67.209  0.00  0.00    +0.000 C 
ATOM     25  O   UNL     1     -58.270 -41.739 -65.205  0.00  0.00    +0.000 OA
ATOM     26  N   UNL     1     -58.327 -41.293 -63.900  0.00  0.00    +0.000 NA
ENDBRANCH  20  21
ENDBRANCH  18  20
ENDBRANCH   2  18
TORSDOF 4
ENDMDL
