REMARK VINA RESULT:    -6.023      3.053      3.880
REMARK INTER + INTRA:          -8.101
REMARK INTER:                  -7.291
REMARK INTRA:                  -0.810
REMARK UNBOUND:                -0.670
REMARK  Name = 
REMARK  6 active torsions:
REMARK  status: ('A' for Active; 'I' for Inactive)
REMARK    1  A    between atoms: C_1  and  C_2
REMARK    2  A    between atoms: C_2  and  C_4
REMARK    3  A    between atoms: C_5  and  S_6
REMARK    4  A    between atoms: S_6  and  C_8
REMARK    5  A    between atoms: C_8  and  C_9
REMARK    6  A    between atoms: C_11  and  C_12
REMARK                            x       y       z     vdW  Elec       q    Type
REMARK                         _______ _______ _______ _____ _____    ______ ____
ROOT
ATOM      1  C   UNL     1     -57.071 -43.420 -77.805  0.00  0.00    +0.000 A 
ATOM      2  C   UNL     1     -56.065 -42.741 -77.209  0.00  0.00    +0.000 A 
ATOM      3  N   UNL     1     -55.032 -43.359 -76.530  0.00  0.00    +0.000 N 
ATOM      4  C   UNL     1     -55.001 -44.741 -76.282  0.00  0.00    +0.000 A 
ATOM      5  C   UNL     1     -53.941 -45.324 -75.562  0.00  0.00    +0.000 A 
ATOM      6 BR   UNL     1     -52.557 -44.253 -74.824  0.00  0.00    +0.000 Br
ATOM      7  C   UNL     1     -53.877 -46.702 -75.362  0.00  0.00    +0.000 A 
ATOM      8  C   UNL     1     -54.871 -47.519 -75.892  0.00  0.00    +0.000 A 
ATOM      9  C   UNL     1     -55.928 -46.967 -76.630  0.00  0.00    +0.000 A 
ATOM     10 CL   UNL     1     -57.078 -48.115 -77.223  0.00  0.00    +0.000 Cl
ATOM     11  C   UNL     1     -55.985 -45.577 -76.842  0.00  0.00    +0.000 A 
ATOM     12  C   UNL     1     -57.074 -44.914 -77.610  0.00  0.00    +0.000 A 
ATOM     13  O   UNL     1     -58.005 -45.580 -78.042  0.00  0.00    +0.000 OA
ATOM     14  H   UNL     1     -54.532 -42.777 -75.856  0.00  0.00    +0.000 HD
ENDROOT
BRANCH   1  16
ATOM     15  C   UNL     1     -57.987 -42.524 -80.073  0.00  0.00    +0.000 C 
ATOM     16  C   UNL     1     -58.188 -42.788 -78.596  0.00  0.00    +0.000 C 
ATOM     17  O   UNL     1     -59.252 -42.459 -78.070  0.00  0.00    +0.000 OA
ENDBRANCH   1  16
BRANCH   2  18
ATOM     18  S   UNL     1     -56.092 -40.917 -77.104  0.00  0.00    +0.000 S 
ATOM     19  O   UNL     1     -56.588 -40.653 -75.707  0.00  0.00    +0.000 OA
BRANCH  18  20
ATOM     20  C   UNL     1     -54.296 -40.580 -77.074  0.00  0.00    +0.000 C 
BRANCH  20  21
ATOM     21  C   UNL     1     -53.603 -40.978 -78.340  0.00  0.00    +0.000 A 
ATOM     22  C   UNL     1     -52.487 -41.832 -78.552  0.00  0.00    +0.000 A 
ATOM     23  C   UNL     1     -52.337 -41.880 -79.915  0.00  0.00    +0.000 A 
ATOM     24  C   UNL     1     -51.398 -42.560 -80.831  0.00  0.00    +0.000 C 
ATOM     25  O   UNL     1     -53.303 -41.124 -80.494  0.00  0.00    +0.000 OA
ATOM     26  N   UNL     1     -54.101 -40.561 -79.514  0.00  0.00    +0.000 NA
ENDBRANCH  20  21
ENDBRANCH  18  20
ENDBRANCH   2  18
TORSDOF 4
