MODEL 1
REMARK VINA RESULT:    -7.770      0.000      0.000
REMARK INTER + INTRA:         -10.929
REMARK INTER:                 -10.042
REMARK INTRA:                  -0.887
REMARK UNBOUND:                -0.887
REMARK  Name = 
REMARK  8 active torsions:
REMARK  status: ('A' for Active; 'I' for Inactive)
REMARK    1  A    between atoms: C_1  and  C_2
REMARK    2  A    between atoms: C_4  and  C_5
REMARK    3  A    between atoms: C_5  and  S_6
REMARK    4  A    between atoms: S_6  and  C_8
REMARK    5  A    between atoms: C_20  and  C_21
REMARK    6  A    between atoms: C_21  and  C_23
REMARK    7  A    between atoms: C_23  and  C_24
REMARK    8  A    between atoms: C_23  and  C_25
REMARK                            x       y       z     vdW  Elec       q    Type
REMARK                         _______ _______ _______ _____ _____    ______ ____
ROOT
ATOM      1  C   UNL     1     -55.803 -41.573 -63.457  0.00  0.00    +0.000 A 
ATOM      2  N   UNL     1     -54.482 -41.214 -63.705  0.00  0.00    +0.000 N 
ATOM      3  C   UNL     1     -53.448 -42.170 -63.723  0.00  0.00    +0.000 A 
ATOM      4  C   UNL     1     -52.217 -41.930 -64.362  0.00  0.00    +0.000 A 
ATOM      5 BR   UNL     1     -51.939 -40.356 -65.384  0.00  0.00    +0.000 Br
ATOM      6  C   UNL     1     -51.179 -42.864 -64.298  0.00  0.00    +0.000 A 
ATOM      7  C   UNL     1     -51.358 -44.054 -63.598  0.00  0.00    +0.000 A 
ATOM      8  C   UNL     1     -52.583 -44.316 -62.958  0.00  0.00    +0.000 A 
ATOM      9 CL   UNL     1     -52.712 -45.854 -62.183  0.00  0.00    +0.000 Cl
ATOM     10  C   UNL     1     -53.628 -43.370 -63.017  0.00  0.00    +0.000 A 
ATOM     11  C   UNL     1     -54.944 -43.538 -62.349  0.00  0.00    +0.000 A 
ATOM     12  O   UNL     1     -55.051 -44.280 -61.377  0.00  0.00    +0.000 OA
ATOM     13  C   UNL     1     -56.139 -42.754 -62.885  0.00  0.00    +0.000 A 
ATOM     14  H   UNL     1     -54.380 -40.425 -64.359  0.00  0.00    +0.000 HD
ENDROOT
BRANCH   1  15
ATOM     15  S   UNL     1     -56.975 -40.369 -64.189  0.00  0.00    +0.000 S 
ATOM     16  O   UNL     1     -57.725 -39.830 -63.001  0.00  0.00    +0.000 OA
BRANCH  15  17
ATOM     17  C   UNL     1     -58.108 -41.422 -65.157  0.00  0.00    +0.000 C 
BRANCH  17  21
ATOM     18  C   UNL     1     -55.689 -42.887 -69.494  0.00  0.00    +0.000 C 
ATOM     19  C   UNL     1     -56.424 -42.669 -68.228  0.00  0.00    +0.000 A 
ATOM     20  C   UNL     1     -56.638 -41.592 -67.400  0.00  0.00    +0.000 A 
ATOM     21  C   UNL     1     -57.475 -42.087 -66.358  0.00  0.00    +0.000 A 
ATOM     22  N   UNL     1     -57.721 -43.394 -66.553  0.00  0.00    +0.000 NA
ATOM     23  O   UNL     1     -57.069 -43.750 -67.719  0.00  0.00    +0.000 OA
ENDBRANCH  17  21
ENDBRANCH  15  17
ENDBRANCH   1  15
BRANCH  13  24
ATOM     24  C   UNL     1     -57.497 -43.404 -62.744  0.00  0.00    +0.000 C 
ATOM     25  O   UNL     1     -57.795 -44.372 -63.442  0.00  0.00    +0.000 OA
BRANCH  24  26
ATOM     26  C   UNL     1     -58.535 -42.824 -61.781  0.00  0.00    +0.000 C 
ATOM     27  C   UNL     1     -59.663 -43.814 -61.502  0.00  0.00    +0.000 C 
ATOM     28  C   UNL     1     -57.900 -42.358 -60.468  0.00  0.00    +0.000 C 
ENDBRANCH  24  26
ENDBRANCH  13  24
TORSDOF 5
ENDMDL
MODEL 2
REMARK VINA RESULT:    -7.480      2.575      4.010
REMARK INTER + INTRA:         -10.554
REMARK INTER:                  -9.421
REMARK INTRA:                  -1.133
REMARK UNBOUND:                -0.887
REMARK  Name = 
REMARK  8 active torsions:
REMARK  status: ('A' for Active; 'I' for Inactive)
REMARK    1  A    between atoms: C_1  and  C_2
REMARK    2  A    between atoms: C_4  and  C_5
REMARK    3  A    between atoms: C_5  and  S_6
REMARK    4  A    between atoms: S_6  and  C_8
REMARK    5  A    between atoms: C_20  and  C_21
REMARK    6  A    between atoms: C_21  and  C_23
REMARK    7  A    between atoms: C_23  and  C_24
REMARK    8  A    between atoms: C_23  and  C_25
REMARK                            x       y       z     vdW  Elec       q    Type
REMARK                         _______ _______ _______ _____ _____    ______ ____
ROOT
ATOM      1  C   UNL     1     -55.543 -41.459 -63.370  0.00  0.00    +0.000 A 
ATOM      2  N   UNL     1     -54.215 -41.150 -63.647  0.00  0.00    +0.000 N 
ATOM      3  C   UNL     1     -53.234 -42.153 -63.773  0.00  0.00    +0.000 A 
ATOM      4  C   UNL     1     -52.017 -41.930 -64.445  0.00  0.00    +0.000 A 
ATOM      5 BR   UNL     1     -51.695 -40.304 -65.367  0.00  0.00    +0.000 Br
ATOM      6  C   UNL     1     -51.028 -42.917 -64.488  0.00  0.00    +0.000 A 
ATOM      7  C   UNL     1     -51.243 -44.143 -63.864  0.00  0.00    +0.000 A 
ATOM      8  C   UNL     1     -52.455 -44.388 -63.194  0.00  0.00    +0.000 A 
ATOM      9 CL   UNL     1     -52.635 -45.968 -62.521  0.00  0.00    +0.000 Cl
ATOM     10  C   UNL     1     -53.450 -43.390 -63.144  0.00  0.00    +0.000 A 
ATOM     11  C   UNL     1     -54.747 -43.538 -62.436  0.00  0.00    +0.000 A 
ATOM     12  O   UNL     1     -54.856 -44.341 -61.514  0.00  0.00    +0.000 OA
ATOM     13  C   UNL     1     -55.918 -42.660 -62.867  0.00  0.00    +0.000 A 
ATOM     14  H   UNL     1     -54.096 -40.323 -64.249  0.00  0.00    +0.000 HD
ENDROOT
BRANCH   1  15
ATOM     15  S   UNL     1     -56.677 -40.150 -63.969  0.00  0.00    +0.000 S 
ATOM     16  O   UNL     1     -57.456 -40.823 -65.066  0.00  0.00    +0.000 OA
BRANCH  15  17
ATOM     17  C   UNL     1     -55.548 -38.932 -64.725  0.00  0.00    +0.000 C 
BRANCH  17  21
ATOM     18  C   UNL     1     -54.575 -34.436 -62.350  0.00  0.00    +0.000 C 
ATOM     19  C   UNL     1     -54.790 -35.811 -62.852  0.00  0.00    +0.000 A 
ATOM     20  C   UNL     1     -55.343 -36.357 -63.988  0.00  0.00    +0.000 A 
ATOM     21  C   UNL     1     -55.194 -37.766 -63.833  0.00  0.00    +0.000 A 
ATOM     22  N   UNL     1     -54.602 -38.033 -62.656  0.00  0.00    +0.000 NA
ATOM     23  O   UNL     1     -54.350 -36.815 -62.053  0.00  0.00    +0.000 OA
ENDBRANCH  17  21
ENDBRANCH  15  17
ENDBRANCH   1  15
BRANCH  13  24
ATOM     24  C   UNL     1     -57.302 -43.250 -62.715  0.00  0.00    +0.000 C 
ATOM     25  O   UNL     1     -57.657 -44.189 -63.426  0.00  0.00    +0.000 OA
BRANCH  24  26
ATOM     26  C   UNL     1     -58.296 -42.643 -61.724  0.00  0.00    +0.000 C 
ATOM     27  C   UNL     1     -59.507 -43.548 -61.510  0.00  0.00    +0.000 C 
ATOM     28  C   UNL     1     -57.637 -42.312 -60.382  0.00  0.00    +0.000 C 
ENDBRANCH  24  26
ENDBRANCH  13  24
TORSDOF 5
ENDMDL
MODEL 3
REMARK VINA RESULT:    -7.167     10.521     12.945
REMARK INTER + INTRA:         -10.148
REMARK INTER:                  -9.074
REMARK INTRA:                  -1.075
REMARK UNBOUND:                -0.887
REMARK  Name = 
REMARK  8 active torsions:
REMARK  status: ('A' for Active; 'I' for Inactive)
REMARK    1  A    between atoms: C_1  and  C_2
REMARK    2  A    between atoms: C_4  and  C_5
REMARK    3  A    between atoms: C_5  and  S_6
REMARK    4  A    between atoms: S_6  and  C_8
REMARK    5  A    between atoms: C_20  and  C_21
REMARK    6  A    between atoms: C_21  and  C_23
REMARK    7  A    between atoms: C_23  and  C_24
REMARK    8  A    between atoms: C_23  and  C_25
REMARK                            x       y       z     vdW  Elec       q    Type
REMARK                         _______ _______ _______ _____ _____    ______ ____
ROOT
ATOM      1  C   UNL     1     -55.630 -42.276 -77.351  0.00  0.00    +0.000 A 
ATOM      2  N   UNL     1     -54.908 -41.091 -77.241  0.00  0.00    +0.000 N 
ATOM      3  C   UNL     1     -53.566 -41.081 -76.812  0.00  0.00    +0.000 A 
ATOM      4  C   UNL     1     -52.702 -40.004 -77.082  0.00  0.00    +0.000 A 
ATOM      5 BR   UNL     1     -53.253 -38.564 -78.187  0.00  0.00    +0.000 Br
ATOM      6  C   UNL     1     -51.398 -39.984 -76.578  0.00  0.00    +0.000 A 
ATOM      7  C   UNL     1     -50.938 -41.044 -75.801  0.00  0.00    +0.000 A 
ATOM      8  C   UNL     1     -51.784 -42.134 -75.526  0.00  0.00    +0.000 A 
ATOM      9 CL   UNL     1     -51.079 -43.420 -74.614  0.00  0.00    +0.000 Cl
ATOM     10  C   UNL     1     -53.101 -42.150 -76.029  0.00  0.00    +0.000 A 
ATOM     11  C   UNL     1     -54.080 -43.237 -75.769  0.00  0.00    +0.000 A 
ATOM     12  O   UNL     1     -53.958 -43.951 -74.778  0.00  0.00    +0.000 OA
ATOM     13  C   UNL     1     -55.240 -43.422 -76.743  0.00  0.00    +0.000 A 
ATOM     14  H   UNL     1     -55.164 -40.380 -77.940  0.00  0.00    +0.000 HD
ENDROOT
BRANCH   1  15
ATOM     15  S   UNL     1     -56.995 -42.120 -78.563  0.00  0.00    +0.000 S 
ATOM     16  O   UNL     1     -56.360 -41.417 -79.732  0.00  0.00    +0.000 OA
BRANCH  15  17
ATOM     17  C   UNL     1     -58.148 -40.963 -77.750  0.00  0.00    +0.000 C 
BRANCH  17  21
ATOM     18  C   UNL     1     -58.065 -40.951 -72.574  0.00  0.00    +0.000 C 
ATOM     19  C   UNL     1     -58.220 -41.114 -74.036  0.00  0.00    +0.000 A 
ATOM     20  C   UNL     1     -57.808 -40.409 -75.144  0.00  0.00    +0.000 A 
ATOM     21  C   UNL     1     -58.286 -41.158 -76.258  0.00  0.00    +0.000 A 
ATOM     22  N   UNL     1     -58.963 -42.235 -75.826  0.00  0.00    +0.000 NA
ATOM     23  O   UNL     1     -58.916 -42.206 -74.445  0.00  0.00    +0.000 OA
ENDBRANCH  17  21
ENDBRANCH  15  17
ENDBRANCH   1  15
BRANCH  13  24
ATOM     24  C   UNL     1     -55.758 -44.831 -76.924  0.00  0.00    +0.000 C 
ATOM     25  O   UNL     1     -56.937 -45.093 -76.688  0.00  0.00    +0.000 OA
BRANCH  24  26
ATOM     26  C   UNL     1     -54.807 -45.956 -77.336  0.00  0.00    +0.000 C 
ATOM     27  C   UNL     1     -54.679 -47.017 -76.245  0.00  0.00    +0.000 C 
ATOM     28  C   UNL     1     -55.226 -46.603 -78.659  0.00  0.00    +0.000 C 
ENDBRANCH  24  26
ENDBRANCH  13  24
TORSDOF 5
ENDMDL
MODEL 4
REMARK VINA RESULT:    -6.841     12.925     15.034
REMARK INTER + INTRA:          -9.728
REMARK INTER:                  -8.394
REMARK INTRA:                  -1.335
REMARK UNBOUND:                -0.887
REMARK  Name = 
REMARK  8 active torsions:
REMARK  status: ('A' for Active; 'I' for Inactive)
REMARK    1  A    between atoms: C_1  and  C_2
REMARK    2  A    between atoms: C_4  and  C_5
REMARK    3  A    between atoms: C_5  and  S_6
REMARK    4  A    between atoms: S_6  and  C_8
REMARK    5  A    between atoms: C_20  and  C_21
REMARK    6  A    between atoms: C_21  and  C_23
REMARK    7  A    between atoms: C_23  and  C_24
REMARK    8  A    between atoms: C_23  and  C_25
REMARK                            x       y       z     vdW  Elec       q    Type
REMARK                         _______ _______ _______ _____ _____    ______ ____
ROOT
ATOM      1  C   UNL     1     -55.444 -42.734 -78.606  0.00  0.00    +0.000 A 
ATOM      2  N   UNL     1     -55.537 -44.122 -78.574  0.00  0.00    +0.000 N 
ATOM      3  C   UNL     1     -55.064 -44.869 -77.478  0.00  0.00    +0.000 A 
ATOM      4  C   UNL     1     -55.502 -46.182 -77.221  0.00  0.00    +0.000 A 
ATOM      5 BR   UNL     1     -56.888 -46.967 -78.251  0.00  0.00    +0.000 Br
ATOM      6  C   UNL     1     -54.959 -46.929 -76.172  0.00  0.00    +0.000 A 
ATOM      7  C   UNL     1     -53.973 -46.373 -75.361  0.00  0.00    +0.000 A 
ATOM      8  C   UNL     1     -53.526 -45.060 -75.597  0.00  0.00    +0.000 A 
ATOM      9 CL   UNL     1     -52.354 -44.455 -74.483  0.00  0.00    +0.000 Cl
ATOM     10  C   UNL     1     -54.070 -44.309 -76.659  0.00  0.00    +0.000 A 
ATOM     11  C   UNL     1     -53.643 -42.929 -77.010  0.00  0.00    +0.000 A 
ATOM     12  O   UNL     1     -52.529 -42.530 -76.687  0.00  0.00    +0.000 OA
ATOM     13  C   UNL     1     -54.610 -42.044 -77.791  0.00  0.00    +0.000 A 
ATOM     14  H   UNL     1     -56.370 -44.495 -79.049  0.00  0.00    +0.000 HD
ENDROOT
BRANCH   1  15
ATOM     15  S   UNL     1     -56.718 -42.000 -79.699  0.00  0.00    +0.000 S 
ATOM     16  O   UNL     1     -57.515 -43.186 -80.169  0.00  0.00    +0.000 OA
BRANCH  15  17
ATOM     17  C   UNL     1     -55.747 -41.362 -81.106  0.00  0.00    +0.000 C 
BRANCH  17  21
ATOM     18  C   UNL     1     -50.892 -43.013 -81.818  0.00  0.00    +0.000 C 
ATOM     19  C   UNL     1     -52.334 -42.740 -81.639  0.00  0.00    +0.000 A 
ATOM     20  C   UNL     1     -53.081 -41.639 -81.284  0.00  0.00    +0.000 A 
ATOM     21  C   UNL     1     -54.436 -42.076 -81.339  0.00  0.00    +0.000 A 
ATOM     22  N   UNL     1     -54.481 -43.374 -81.687  0.00  0.00    +0.000 NA
ATOM     23  O   UNL     1     -53.174 -43.780 -81.876  0.00  0.00    +0.000 OA
ENDBRANCH  17  21
ENDBRANCH  15  17
ENDBRANCH   1  15
BRANCH  13  24
ATOM     24  C   UNL     1     -54.534 -40.557 -77.527  0.00  0.00    +0.000 C 
ATOM     25  O   UNL     1     -55.414 -39.999 -76.873  0.00  0.00    +0.000 OA
BRANCH  24  26
ATOM     26  C   UNL     1     -53.400 -39.723 -78.126  0.00  0.00    +0.000 C 
ATOM     27  C   UNL     1     -53.918 -38.716 -79.150  0.00  0.00    +0.000 C 
ATOM     28  C   UNL     1     -52.584 -39.009 -77.046  0.00  0.00    +0.000 C 
ENDBRANCH  24  26
ENDBRANCH  13  24
TORSDOF 5
ENDMDL
MODEL 5
REMARK VINA RESULT:    -6.740      3.479      5.666
REMARK INTER + INTRA:          -9.597
REMARK INTER:                  -8.670
REMARK INTRA:                  -0.928
REMARK UNBOUND:                -0.887
REMARK  Name = 
REMARK  8 active torsions:
REMARK  status: ('A' for Active; 'I' for Inactive)
REMARK    1  A    between atoms: C_1  and  C_2
REMARK    2  A    between atoms: C_4  and  C_5
REMARK    3  A    between atoms: C_5  and  S_6
REMARK    4  A    between atoms: S_6  and  C_8
REMARK    5  A    between atoms: C_20  and  C_21
REMARK    6  A    between atoms: C_21  and  C_23
REMARK    7  A    between atoms: C_23  and  C_24
REMARK    8  A    between atoms: C_23  and  C_25
REMARK                            x       y       z     vdW  Elec       q    Type
REMARK                         _______ _______ _______ _____ _____    ______ ____
ROOT
ATOM      1  C   UNL     1     -57.606 -40.822 -63.008  0.00  0.00    +0.000 A 
ATOM      2  N   UNL     1     -57.094 -39.606 -62.566  0.00  0.00    +0.000 N 
ATOM      3  C   UNL     1     -55.992 -38.996 -63.196  0.00  0.00    +0.000 A 
ATOM      4  C   UNL     1     -55.718 -37.622 -63.061  0.00  0.00    +0.000 A 
ATOM      5 BR   UNL     1     -56.918 -36.473 -62.145  0.00  0.00    +0.000 Br
ATOM      6  C   UNL     1     -54.575 -37.057 -63.633  0.00  0.00    +0.000 A 
ATOM      7  C   UNL     1     -53.692 -37.856 -64.353  0.00  0.00    +0.000 A 
ATOM      8  C   UNL     1     -53.951 -39.230 -64.507  0.00  0.00    +0.000 A 
ATOM      9 CL   UNL     1     -52.823 -40.103 -65.481  0.00  0.00    +0.000 Cl
ATOM     10  C   UNL     1     -55.101 -39.801 -63.924  0.00  0.00    +0.000 A 
ATOM     11  C   UNL     1     -55.447 -41.244 -64.001  0.00  0.00    +0.000 A 
ATOM     12  O   UNL     1     -54.567 -42.077 -64.194  0.00  0.00    +0.000 OA
ATOM     13  C   UNL     1     -56.904 -41.655 -63.812  0.00  0.00    +0.000 A 
ATOM     14  H   UNL     1     -57.805 -38.969 -62.182  0.00  0.00    +0.000 HD
ENDROOT
BRANCH   1  15
ATOM     15  S   UNL     1     -59.370 -41.015 -62.549  0.00  0.00    +0.000 S 
ATOM     16  O   UNL     1     -59.859 -39.599 -62.399  0.00  0.00    +0.000 OA
BRANCH  15  17
ATOM     17  C   UNL     1     -59.291 -41.777 -60.893  0.00  0.00    +0.000 C 
BRANCH  17  21
ATOM     18  C   UNL     1     -61.518 -46.441 -61.192  0.00  0.00    +0.000 C 
ATOM     19  C   UNL     1     -60.989 -45.085 -60.931  0.00  0.00    +0.000 A 
ATOM     20  C   UNL     1     -60.028 -44.286 -61.508  0.00  0.00    +0.000 A 
ATOM     21  C   UNL     1     -60.057 -43.073 -60.761  0.00  0.00    +0.000 A 
ATOM     22  N   UNL     1     -60.972 -43.163 -59.781  0.00  0.00    +0.000 NA
ATOM     23  O   UNL     1     -61.551 -44.413 -59.893  0.00  0.00    +0.000 OA
ENDBRANCH  17  21
ENDBRANCH  15  17
ENDBRANCH   1  15
BRANCH  13  24
ATOM     24  C   UNL     1     -57.365 -42.885 -64.562  0.00  0.00    +0.000 C 
ATOM     25  O   UNL     1     -57.438 -43.970 -63.986  0.00  0.00    +0.000 OA
BRANCH  24  26
ATOM     26  C   UNL     1     -57.681 -42.805 -66.056  0.00  0.00    +0.000 C 
ATOM     27  C   UNL     1     -57.856 -44.191 -66.672  0.00  0.00    +0.000 C 
ATOM     28  C   UNL     1     -58.913 -41.940 -66.336  0.00  0.00    +0.000 C 
ENDBRANCH  24  26
ENDBRANCH  13  24
TORSDOF 5
ENDMDL
MODEL 6
REMARK VINA RESULT:    -6.006     12.516     14.880
REMARK INTER + INTRA:          -8.648
REMARK INTER:                  -7.517
REMARK INTRA:                  -1.131
REMARK UNBOUND:                -0.887
REMARK  Name = 
REMARK  8 active torsions:
REMARK  status: ('A' for Active; 'I' for Inactive)
REMARK    1  A    between atoms: C_1  and  C_2
REMARK    2  A    between atoms: C_4  and  C_5
REMARK    3  A    between atoms: C_5  and  S_6
REMARK    4  A    between atoms: S_6  and  C_8
REMARK    5  A    between atoms: C_20  and  C_21
REMARK    6  A    between atoms: C_21  and  C_23
REMARK    7  A    between atoms: C_23  and  C_24
REMARK    8  A    between atoms: C_23  and  C_25
REMARK                            x       y       z     vdW  Elec       q    Type
REMARK                         _______ _______ _______ _____ _____    ______ ____
ROOT
ATOM      1  C   UNL     1     -55.833 -43.282 -78.191  0.00  0.00    +0.000 A 
ATOM      2  N   UNL     1     -55.160 -42.096 -77.910  0.00  0.00    +0.000 N 
ATOM      3  C   UNL     1     -53.960 -42.085 -77.173  0.00  0.00    +0.000 A 
ATOM      4  C   UNL     1     -53.059 -41.005 -77.226  0.00  0.00    +0.000 A 
ATOM      5 BR   UNL     1     -53.333 -39.564 -78.428  0.00  0.00    +0.000 Br
ATOM      6  C   UNL     1     -51.914 -40.985 -76.424  0.00  0.00    +0.000 A 
ATOM      7  C   UNL     1     -51.650 -42.045 -75.562  0.00  0.00    +0.000 A 
ATOM      8  C   UNL     1     -52.535 -43.137 -75.499  0.00  0.00    +0.000 A 
ATOM      9 CL   UNL     1     -52.066 -44.424 -74.447  0.00  0.00    +0.000 Cl
ATOM     10  C   UNL     1     -53.694 -43.155 -76.303  0.00  0.00    +0.000 A 
ATOM     11  C   UNL     1     -54.705 -44.243 -76.286  0.00  0.00    +0.000 A 
ATOM     12  O   UNL     1     -54.821 -44.960 -75.296  0.00  0.00    +0.000 OA
ATOM     13  C   UNL     1     -55.597 -44.428 -77.510  0.00  0.00    +0.000 A 
ATOM     14  H   UNL     1     -55.244 -41.384 -78.648  0.00  0.00    +0.000 HD
ENDROOT
BRANCH   1  15
ATOM     15  S   UNL     1     -56.869 -43.126 -79.695  0.00  0.00    +0.000 S 
ATOM     16  O   UNL     1     -56.241 -44.090 -80.665  0.00  0.00    +0.000 OA
BRANCH  15  17
ATOM     17  C   UNL     1     -56.527 -41.427 -80.265  0.00  0.00    +0.000 C 
BRANCH  17  21
ATOM     18  C   UNL     1     -52.730 -41.074 -83.767  0.00  0.00    +0.000 C 
ATOM     19  C   UNL     1     -53.944 -41.185 -82.928  0.00  0.00    +0.000 A 
ATOM     20  C   UNL     1     -54.187 -41.332 -81.582  0.00  0.00    +0.000 A 
ATOM     21  C   UNL     1     -55.607 -41.338 -81.461  0.00  0.00    +0.000 A 
ATOM     22  N   UNL     1     -56.168 -41.222 -82.677  0.00  0.00    +0.000 NA
ATOM     23  O   UNL     1     -55.131 -41.124 -83.584  0.00  0.00    +0.000 OA
ENDBRANCH  17  21
ENDBRANCH  15  17
ENDBRANCH   1  15
BRANCH  13  24
ATOM     24  C   UNL     1     -56.053 -45.838 -77.811  0.00  0.00    +0.000 C 
ATOM     25  O   UNL     1     -57.248 -46.126 -77.761  0.00  0.00    +0.000 OA
BRANCH  24  26
ATOM     26  C   UNL     1     -55.030 -46.933 -78.116  0.00  0.00    +0.000 C 
ATOM     27  C   UNL     1     -55.170 -48.119 -77.165  0.00  0.00    +0.000 C 
ATOM     28  C   UNL     1     -55.112 -47.405 -79.570  0.00  0.00    +0.000 C 
ENDBRANCH  24  26
ENDBRANCH  13  24
TORSDOF 5
ENDMDL
MODEL 7
REMARK VINA RESULT:    -5.684      4.715      6.662
REMARK INTER + INTRA:          -8.232
REMARK INTER:                  -7.317
REMARK INTRA:                  -0.915
REMARK UNBOUND:                -0.887
REMARK  Name = 
REMARK  8 active torsions:
REMARK  status: ('A' for Active; 'I' for Inactive)
REMARK    1  A    between atoms: C_1  and  C_2
REMARK    2  A    between atoms: C_4  and  C_5
REMARK    3  A    between atoms: C_5  and  S_6
REMARK    4  A    between atoms: S_6  and  C_8
REMARK    5  A    between atoms: C_20  and  C_21
REMARK    6  A    between atoms: C_21  and  C_23
REMARK    7  A    between atoms: C_23  and  C_24
REMARK    8  A    between atoms: C_23  and  C_25
REMARK                            x       y       z     vdW  Elec       q    Type
REMARK                         _______ _______ _______ _____ _____    ______ ____
ROOT
ATOM      1  C   UNL     1     -56.874 -38.248 -62.754  0.00  0.00    +0.000 A 
ATOM      2  N   UNL     1     -56.721 -39.583 -63.117  0.00  0.00    +0.000 N 
ATOM      3  C   UNL     1     -55.492 -40.083 -63.589  0.00  0.00    +0.000 A 
ATOM      4  C   UNL     1     -55.183 -41.456 -63.565  0.00  0.00    +0.000 A 
ATOM      5 BR   UNL     1     -56.348 -42.704 -62.738  0.00  0.00    +0.000 Br
ATOM      6  C   UNL     1     -53.989 -41.934 -64.112  0.00  0.00    +0.000 A 
ATOM      7  C   UNL     1     -53.083 -41.047 -64.686  0.00  0.00    +0.000 A 
ATOM      8  C   UNL     1     -53.370 -39.670 -64.714  0.00  0.00    +0.000 A 
ATOM      9 CL   UNL     1     -52.141 -38.660 -65.387  0.00  0.00    +0.000 Cl
ATOM     10  C   UNL     1     -54.578 -39.188 -64.169  0.00  0.00    +0.000 A 
ATOM     11  C   UNL     1     -54.987 -37.760 -64.178  0.00  0.00    +0.000 A 
ATOM     12  O   UNL     1     -54.523 -36.993 -65.016  0.00  0.00    +0.000 OA
ATOM     13  C   UNL     1     -56.004 -37.286 -63.143  0.00  0.00    +0.000 A 
ATOM     14  H   UNL     1     -57.289 -40.235 -62.559  0.00  0.00    +0.000 HD
ENDROOT
BRANCH   1  15
ATOM     15  S   UNL     1     -58.233 -38.033 -61.544  0.00  0.00    +0.000 S 
ATOM     16  O   UNL     1     -57.522 -37.703 -60.259  0.00  0.00    +0.000 OA
BRANCH  15  17
ATOM     17  C   UNL     1     -58.936 -39.711 -61.400  0.00  0.00    +0.000 C 
BRANCH  17  21
ATOM     18  C   UNL     1     -63.835 -39.977 -63.052  0.00  0.00    +0.000 C 
ATOM     19  C   UNL     1     -62.515 -39.904 -62.389  0.00  0.00    +0.000 A 
ATOM     20  C   UNL     1     -61.207 -39.954 -62.814  0.00  0.00    +0.000 A 
ATOM     21  C   UNL     1     -60.427 -39.790 -61.633  0.00  0.00    +0.000 A 
ATOM     22  N   UNL     1     -61.236 -39.672 -60.566  0.00  0.00    +0.000 NA
ATOM     23  O   UNL     1     -62.532 -39.740 -61.041  0.00  0.00    +0.000 OA
ENDBRANCH  17  21
ENDBRANCH  15  17
ENDBRANCH   1  15
BRANCH  13  24
ATOM     24  C   UNL     1     -55.880 -35.854 -62.675  0.00  0.00    +0.000 C 
ATOM     25  O   UNL     1     -56.762 -35.038 -62.940  0.00  0.00    +0.000 OA
BRANCH  24  26
ATOM     26  C   UNL     1     -54.629 -35.390 -61.928  0.00  0.00    +0.000 C 
ATOM     27  C   UNL     1     -54.676 -33.896 -61.616  0.00  0.00    +0.000 C 
ATOM     28  C   UNL     1     -54.398 -36.193 -60.645  0.00  0.00    +0.000 C 
ENDBRANCH  24  26
ENDBRANCH  13  24
TORSDOF 5
ENDMDL
MODEL 8
REMARK VINA RESULT:    -5.632     14.483     17.284
REMARK INTER + INTRA:          -8.165
REMARK INTER:                  -6.945
REMARK INTRA:                  -1.221
REMARK UNBOUND:                -0.887
REMARK  Name = 
REMARK  8 active torsions:
REMARK  status: ('A' for Active; 'I' for Inactive)
REMARK    1  A    between atoms: C_1  and  C_2
REMARK    2  A    between atoms: C_4  and  C_5
REMARK    3  A    between atoms: C_5  and  S_6
REMARK    4  A    between atoms: S_6  and  C_8
REMARK    5  A    between atoms: C_20  and  C_21
REMARK    6  A    between atoms: C_21  and  C_23
REMARK    7  A    between atoms: C_23  and  C_24
REMARK    8  A    between atoms: C_23  and  C_25
REMARK                            x       y       z     vdW  Elec       q    Type
REMARK                         _______ _______ _______ _____ _____    ______ ____
ROOT
ATOM      1  C   UNL     1     -56.229 -42.010 -80.934  0.00  0.00    +0.000 A 
ATOM      2  N   UNL     1     -55.146 -42.044 -81.807  0.00  0.00    +0.000 N 
ATOM      3  C   UNL     1     -53.829 -42.226 -81.343  0.00  0.00    +0.000 A 
ATOM      4  C   UNL     1     -52.793 -42.675 -82.185  0.00  0.00    +0.000 A 
ATOM      5 BR   UNL     1     -53.151 -43.220 -83.966  0.00  0.00    +0.000 Br
ATOM      6  C   UNL     1     -51.479 -42.772 -81.719  0.00  0.00    +0.000 A 
ATOM      7  C   UNL     1     -51.181 -42.427 -80.404  0.00  0.00    +0.000 A 
ATOM      8  C   UNL     1     -52.202 -41.983 -79.544  0.00  0.00    +0.000 A 
ATOM      9 CL   UNL     1     -51.725 -41.653 -77.918  0.00  0.00    +0.000 Cl
ATOM     10  C   UNL     1     -53.527 -41.878 -80.016  0.00  0.00    +0.000 A 
ATOM     11  C   UNL     1     -54.668 -41.390 -79.199  0.00  0.00    +0.000 A 
ATOM     12  O   UNL     1     -54.465 -40.660 -78.234  0.00  0.00    +0.000 OA
ATOM     13  C   UNL     1     -56.082 -41.798 -79.604  0.00  0.00    +0.000 A 
ATOM     14  H   UNL     1     -55.363 -42.456 -82.725  0.00  0.00    +0.000 HD
ENDROOT
BRANCH   1  15
ATOM     15  S   UNL     1     -57.784 -42.494 -81.773  0.00  0.00    +0.000 S 
ATOM     16  O   UNL     1     -57.317 -43.177 -83.030  0.00  0.00    +0.000 OA
BRANCH  15  17
ATOM     17  C   UNL     1     -58.531 -40.893 -82.229  0.00  0.00    +0.000 C 
BRANCH  17  21
ATOM     18  C   UNL     1     -57.309 -39.144 -86.945  0.00  0.00    +0.000 C 
ATOM     19  C   UNL     1     -57.488 -39.545 -85.533  0.00  0.00    +0.000 A 
ATOM     20  C   UNL     1     -58.472 -40.192 -84.821  0.00  0.00    +0.000 A 
ATOM     21  C   UNL     1     -57.973 -40.275 -83.489  0.00  0.00    +0.000 A 
ATOM     22  N   UNL     1     -56.766 -39.688 -83.418  0.00  0.00    +0.000 NA
ATOM     23  O   UNL     1     -56.467 -39.240 -84.691  0.00  0.00    +0.000 OA
ENDBRANCH  17  21
ENDBRANCH  15  17
ENDBRANCH   1  15
BRANCH  13  24
ATOM     24  C   UNL     1     -57.092 -41.947 -78.488  0.00  0.00    +0.000 C 
ATOM     25  O   UNL     1     -57.191 -43.013 -77.881  0.00  0.00    +0.000 OA
BRANCH  24  26
ATOM     26  C   UNL     1     -58.042 -40.799 -78.148  0.00  0.00    +0.000 C 
ATOM     27  C   UNL     1     -59.503 -41.243 -78.185  0.00  0.00    +0.000 C 
ATOM     28  C   UNL     1     -57.714 -40.166 -76.794  0.00  0.00    +0.000 C 
ENDBRANCH  24  26
ENDBRANCH  13  24
TORSDOF 5
ENDMDL
MODEL 9
REMARK VINA RESULT:    -5.628     17.769     19.641
REMARK INTER + INTRA:          -8.160
REMARK INTER:                  -7.124
REMARK INTRA:                  -1.036
REMARK UNBOUND:                -0.887
REMARK  Name = 
REMARK  8 active torsions:
REMARK  status: ('A' for Active; 'I' for Inactive)
REMARK    1  A    between atoms: C_1  and  C_2
REMARK    2  A    between atoms: C_4  and  C_5
REMARK    3  A    between atoms: C_5  and  S_6
REMARK    4  A    between atoms: S_6  and  C_8
REMARK    5  A    between atoms: C_20  and  C_21
REMARK    6  A    between atoms: C_21  and  C_23
REMARK    7  A    between atoms: C_23  and  C_24
REMARK    8  A    between atoms: C_23  and  C_25
REMARK                            x       y       z     vdW  Elec       q    Type
REMARK                         _______ _______ _______ _____ _____    ______ ____
ROOT
ATOM      1  C   UNL     1     -47.847 -24.777 -62.099  0.00  0.00    +0.000 A 
ATOM      2  N   UNL     1     -47.724 -24.830 -63.484  0.00  0.00    +0.000 N 
ATOM      3  C   UNL     1     -48.496 -24.006 -64.326  0.00  0.00    +0.000 A 
ATOM      4  C   UNL     1     -48.119 -23.729 -65.654  0.00  0.00    +0.000 A 
ATOM      5 BR   UNL     1     -46.453 -24.323 -66.339  0.00  0.00    +0.000 Br
ATOM      6  C   UNL     1     -48.943 -22.972 -66.492  0.00  0.00    +0.000 A 
ATOM      7  C   UNL     1     -50.153 -22.477 -66.014  0.00  0.00    +0.000 A 
ATOM      8  C   UNL     1     -50.544 -22.736 -64.688  0.00  0.00    +0.000 A 
ATOM      9 CL   UNL     1     -52.029 -22.010 -64.187  0.00  0.00    +0.000 Cl
ATOM     10  C   UNL     1     -49.716 -23.505 -63.844  0.00  0.00    +0.000 A 
ATOM     11  C   UNL     1     -50.054 -23.861 -62.442  0.00  0.00    +0.000 A 
ATOM     12  O   UNL     1     -51.226 -23.880 -62.077  0.00  0.00    +0.000 OA
ATOM     13  C   UNL     1     -48.919 -24.219 -61.487  0.00  0.00    +0.000 A 
ATOM     14  H   UNL     1     -46.771 -25.042 -63.810  0.00  0.00    +0.000 HD
ENDROOT
BRANCH   1  15
ATOM     15  S   UNL     1     -46.316 -25.344 -61.266  0.00  0.00    +0.000 S 
ATOM     16  O   UNL     1     -45.316 -24.265 -61.581  0.00  0.00    +0.000 OA
BRANCH  15  17
ATOM     17  C   UNL     1     -45.862 -26.845 -62.200  0.00  0.00    +0.000 C 
BRANCH  17  21
ATOM     18  C   UNL     1     -49.557 -30.432 -61.671  0.00  0.00    +0.000 C 
ATOM     19  C   UNL     1     -48.373 -29.547 -61.739  0.00  0.00    +0.000 A 
ATOM     20  C   UNL     1     -48.111 -28.310 -62.283  0.00  0.00    +0.000 A 
ATOM     21  C   UNL     1     -46.754 -28.037 -61.946  0.00  0.00    +0.000 A 
ATOM     22  N   UNL     1     -46.239 -29.071 -61.258  0.00  0.00    +0.000 NA
ATOM     23  O   UNL     1     -47.250 -30.004 -61.129  0.00  0.00    +0.000 OA
ENDBRANCH  17  21
ENDBRANCH  15  17
ENDBRANCH   1  15
BRANCH  13  24
ATOM     24  C   UNL     1     -49.123 -23.874 -60.029  0.00  0.00    +0.000 C 
ATOM     25  O   UNL     1     -48.597 -22.870 -59.551  0.00  0.00    +0.000 OA
BRANCH  24  26
ATOM     26  C   UNL     1     -49.930 -24.803 -59.121  0.00  0.00    +0.000 C 
ATOM     27  C   UNL     1     -49.595 -26.271 -59.372  0.00  0.00    +0.000 C 
ATOM     28  C   UNL     1     -49.741 -24.462 -57.640  0.00  0.00    +0.000 C 
ENDBRANCH  24  26
ENDBRANCH  13  24
TORSDOF 5
ENDMDL
MODEL 10
REMARK VINA RESULT:    -5.622     12.091     15.546
REMARK INTER + INTRA:          -8.153
REMARK INTER:                  -7.200
REMARK INTRA:                  -0.953
REMARK UNBOUND:                -0.887
REMARK  Name = 
REMARK  8 active torsions:
REMARK  status: ('A' for Active; 'I' for Inactive)
REMARK    1  A    between atoms: C_1  and  C_2
REMARK    2  A    between atoms: C_4  and  C_5
REMARK    3  A    between atoms: C_5  and  S_6
REMARK    4  A    between atoms: S_6  and  C_8
REMARK    5  A    between atoms: C_20  and  C_21
REMARK    6  A    between atoms: C_21  and  C_23
REMARK    7  A    between atoms: C_23  and  C_24
REMARK    8  A    between atoms: C_23  and  C_25
REMARK                            x       y       z     vdW  Elec       q    Type
REMARK                         _______ _______ _______ _____ _____    ______ ____
ROOT
ATOM      1  C   UNL     1     -56.431 -41.681 -79.285  0.00  0.00    +0.000 A 
ATOM      2  N   UNL     1     -55.244 -41.411 -78.612  0.00  0.00    +0.000 N 
ATOM      3  C   UNL     1     -54.980 -41.946 -77.336  0.00  0.00    +0.000 A 
ATOM      4  C   UNL     1     -53.674 -42.045 -76.820  0.00  0.00    +0.000 A 
ATOM      5 BR   UNL     1     -52.168 -41.610 -77.888  0.00  0.00    +0.000 Br
ATOM      6  C   UNL     1     -53.448 -42.507 -75.520  0.00  0.00    +0.000 A 
ATOM      7  C   UNL     1     -54.522 -42.882 -74.719  0.00  0.00    +0.000 A 
ATOM      8  C   UNL     1     -55.835 -42.798 -75.218  0.00  0.00    +0.000 A 
ATOM      9 CL   UNL     1     -57.079 -43.357 -74.159  0.00  0.00    +0.000 Cl
ATOM     10  C   UNL     1     -56.064 -42.324 -76.527  0.00  0.00    +0.000 A 
ATOM     11  C   UNL     1     -57.411 -42.167 -77.134  0.00  0.00    +0.000 A 
ATOM     12  O   UNL     1     -58.397 -42.028 -76.415  0.00  0.00    +0.000 OA
ATOM     13  C   UNL     1     -57.529 -42.161 -78.655  0.00  0.00    +0.000 A 
ATOM     14  H   UNL     1     -54.429 -41.297 -79.231  0.00  0.00    +0.000 HD
ENDROOT
BRANCH   1  15
ATOM     15  S   UNL     1     -56.227 -41.513 -81.099  0.00  0.00    +0.000 S 
ATOM     16  O   UNL     1     -55.888 -42.907 -81.553  0.00  0.00    +0.000 OA
BRANCH  15  17
ATOM     17  C   UNL     1     -54.736 -40.474 -81.259  0.00  0.00    +0.000 C 
BRANCH  17  21
ATOM     18  C   UNL     1     -50.535 -42.846 -83.138  0.00  0.00    +0.000 C 
ATOM     19  C   UNL     1     -51.789 -42.138 -82.799  0.00  0.00    +0.000 A 
ATOM     20  C   UNL     1     -52.480 -41.883 -81.636  0.00  0.00    +0.000 A 
ATOM     21  C   UNL     1     -53.608 -41.110 -82.037  0.00  0.00    +0.000 A 
ATOM     22  N   UNL     1     -53.590 -40.937 -83.370  0.00  0.00    +0.000 NA
ATOM     23  O   UNL     1     -52.457 -41.574 -83.838  0.00  0.00    +0.000 OA
ENDBRANCH  17  21
ENDBRANCH  15  17
ENDBRANCH   1  15
BRANCH  13  24
ATOM     24  C   UNL     1     -58.809 -42.716 -79.239  0.00  0.00    +0.000 C 
ATOM     25  O   UNL     1     -58.935 -43.927 -79.415  0.00  0.00    +0.000 OA
BRANCH  24  26
ATOM     26  C   UNL     1     -59.930 -41.773 -79.679  0.00  0.00    +0.000 C 
ATOM     27  C   UNL     1     -59.869 -40.438 -78.942  0.00  0.00    +0.000 C 
ATOM     28  C   UNL     1     -59.924 -41.545 -81.193  0.00  0.00    +0.000 C 
ENDBRANCH  24  26
ENDBRANCH  13  24
TORSDOF 5
ENDMDL
MODEL 11
REMARK VINA RESULT:    -5.602      5.705      7.757
REMARK INTER + INTRA:          -8.127
REMARK INTER:                  -7.107
REMARK INTRA:                  -1.020
REMARK UNBOUND:                -0.887
REMARK  Name = 
REMARK  8 active torsions:
REMARK  status: ('A' for Active; 'I' for Inactive)
REMARK    1  A    between atoms: C_1  and  C_2
REMARK    2  A    between atoms: C_4  and  C_5
REMARK    3  A    between atoms: C_5  and  S_6
REMARK    4  A    between atoms: S_6  and  C_8
REMARK    5  A    between atoms: C_20  and  C_21
REMARK    6  A    between atoms: C_21  and  C_23
REMARK    7  A    between atoms: C_23  and  C_24
REMARK    8  A    between atoms: C_23  and  C_25
REMARK                            x       y       z     vdW  Elec       q    Type
REMARK                         _______ _______ _______ _____ _____    ______ ____
ROOT
ATOM      1  C   UNL     1     -56.665 -38.126 -62.526  0.00  0.00    +0.000 A 
ATOM      2  N   UNL     1     -56.611 -39.461 -62.914  0.00  0.00    +0.000 N 
ATOM      3  C   UNL     1     -55.445 -40.024 -63.467  0.00  0.00    +0.000 A 
ATOM      4  C   UNL     1     -55.215 -41.412 -63.479  0.00  0.00    +0.000 A 
ATOM      5 BR   UNL     1     -56.398 -42.604 -62.597  0.00  0.00    +0.000 Br
ATOM      6  C   UNL     1     -54.086 -41.949 -64.104  0.00  0.00    +0.000 A 
ATOM      7  C   UNL     1     -53.168 -41.106 -64.723  0.00  0.00    +0.000 A 
ATOM      8  C   UNL     1     -53.375 -39.714 -64.716  0.00  0.00    +0.000 A 
ATOM      9 CL   UNL     1     -52.133 -38.767 -65.452  0.00  0.00    +0.000 Cl
ATOM     10  C   UNL     1     -54.518 -39.173 -64.092  0.00  0.00    +0.000 A 
ATOM     11  C   UNL     1     -54.843 -37.724 -64.058  0.00  0.00    +0.000 A 
ATOM     12  O   UNL     1     -54.388 -36.972 -64.914  0.00  0.00    +0.000 OA
ATOM     13  C   UNL     1     -55.766 -37.209 -62.957  0.00  0.00    +0.000 A 
ATOM     14  H   UNL     1     -57.182 -40.088 -62.330  0.00  0.00    +0.000 HD
ENDROOT
BRANCH   1  15
ATOM     15  S   UNL     1     -57.933 -37.853 -61.231  0.00  0.00    +0.000 S 
ATOM     16  O   UNL     1     -58.504 -39.224 -60.993  0.00  0.00    +0.000 OA
BRANCH  15  17
ATOM     17  C   UNL     1     -59.191 -36.843 -62.084  0.00  0.00    +0.000 C 
BRANCH  17  21
ATOM     18  C   UNL     1     -61.257 -32.523 -60.115  0.00  0.00    +0.000 C 
ATOM     19  C   UNL     1     -60.520 -33.737 -60.532  0.00  0.00    +0.000 A 
ATOM     20  C   UNL     1     -60.747 -34.752 -61.433  0.00  0.00    +0.000 A 
ATOM     21  C   UNL     1     -59.597 -35.589 -61.345  0.00  0.00    +0.000 A 
ATOM     22  N   UNL     1     -58.748 -35.101 -60.424  0.00  0.00    +0.000 NA
ATOM     23  O   UNL     1     -59.325 -33.948 -59.925  0.00  0.00    +0.000 OA
ENDBRANCH  17  21
ENDBRANCH  15  17
ENDBRANCH   1  15
BRANCH  13  24
ATOM     24  C   UNL     1     -55.531 -35.793 -62.480  0.00  0.00    +0.000 C 
ATOM     25  O   UNL     1     -56.277 -34.886 -62.845  0.00  0.00    +0.000 OA
BRANCH  24  26
ATOM     26  C   UNL     1     -54.327 -35.466 -61.596  0.00  0.00    +0.000 C 
ATOM     27  C   UNL     1     -53.679 -34.141 -61.991  0.00  0.00    +0.000 C 
ATOM     28  C   UNL     1     -54.694 -35.455 -60.110  0.00  0.00    +0.000 C 
ENDBRANCH  24  26
ENDBRANCH  13  24
TORSDOF 5
ENDMDL
MODEL 12
REMARK VINA RESULT:    -5.453      5.229      7.325
REMARK INTER + INTRA:          -7.934
REMARK INTER:                  -7.201
REMARK INTRA:                  -0.733
REMARK UNBOUND:                -0.887
REMARK  Name = 
REMARK  8 active torsions:
REMARK  status: ('A' for Active; 'I' for Inactive)
REMARK    1  A    between atoms: C_1  and  C_2
REMARK    2  A    between atoms: C_4  and  C_5
REMARK    3  A    between atoms: C_5  and  S_6
REMARK    4  A    between atoms: S_6  and  C_8
REMARK    5  A    between atoms: C_20  and  C_21
REMARK    6  A    between atoms: C_21  and  C_23
REMARK    7  A    between atoms: C_23  and  C_24
REMARK    8  A    between atoms: C_23  and  C_25
REMARK                            x       y       z     vdW  Elec       q    Type
REMARK                         _______ _______ _______ _____ _____    ______ ____
ROOT
ATOM      1  C   UNL     1     -57.670 -38.895 -62.368  0.00  0.00    +0.000 A 
ATOM      2  N   UNL     1     -58.246 -40.160 -62.432  0.00  0.00    +0.000 N 
ATOM      3  C   UNL     1     -57.462 -41.324 -62.554  0.00  0.00    +0.000 A 
ATOM      4  C   UNL     1     -57.952 -42.597 -62.208  0.00  0.00    +0.000 A 
ATOM      5 BR   UNL     1     -59.654 -42.800 -61.396  0.00  0.00    +0.000 Br
ATOM      6  C   UNL     1     -57.180 -43.745 -62.413  0.00  0.00    +0.000 A 
ATOM      7  C   UNL     1     -55.906 -43.635 -62.962  0.00  0.00    +0.000 A 
ATOM      8  C   UNL     1     -55.395 -42.371 -63.308  0.00  0.00    +0.000 A 
ATOM      9 CL   UNL     1     -53.778 -42.355 -63.914  0.00  0.00    +0.000 Cl
ATOM     10  C   UNL     1     -56.176 -41.214 -63.108  0.00  0.00    +0.000 A 
ATOM     11  C   UNL     1     -55.742 -39.841 -63.470  0.00  0.00    +0.000 A 
ATOM     12  O   UNL     1     -54.887 -39.674 -64.335  0.00  0.00    +0.000 OA
ATOM     13  C   UNL     1     -56.396 -38.659 -62.761  0.00  0.00    +0.000 A 
ATOM     14  H   UNL     1     -59.110 -40.254 -61.879  0.00  0.00    +0.000 HD
ENDROOT
BRANCH   1  15
ATOM     15  S   UNL     1     -58.762 -37.702 -61.506  0.00  0.00    +0.000 S 
ATOM     16  O   UNL     1     -58.654 -38.097 -60.058  0.00  0.00    +0.000 OA
BRANCH  15  17
ATOM     17  C   UNL     1     -60.427 -38.150 -62.105  0.00  0.00    +0.000 C 
BRANCH  17  21
ATOM     18  C   UNL     1     -63.790 -34.682 -60.242  0.00  0.00    +0.000 C 
ATOM     19  C   UNL     1     -62.965 -35.817 -60.712  0.00  0.00    +0.000 A 
ATOM     20  C   UNL     1     -61.800 -35.941 -61.435  0.00  0.00    +0.000 A 
ATOM     21  C   UNL     1     -61.550 -37.342 -61.499  0.00  0.00    +0.000 A 
ATOM     22  N   UNL     1     -62.530 -38.008 -60.864  0.00  0.00    +0.000 NA
ATOM     23  O   UNL     1     -63.404 -37.056 -60.374  0.00  0.00    +0.000 OA
ENDBRANCH  17  21
ENDBRANCH  15  17
ENDBRANCH   1  15
BRANCH  13  24
ATOM     24  C   UNL     1     -55.540 -37.427 -62.562  0.00  0.00    +0.000 C 
ATOM     25  O   UNL     1     -54.731 -37.379 -61.636  0.00  0.00    +0.000 OA
BRANCH  24  26
ATOM     26  C   UNL     1     -55.719 -36.208 -63.467  0.00  0.00    +0.000 C 
ATOM     27  C   UNL     1     -55.374 -34.909 -62.742  0.00  0.00    +0.000 C 
ATOM     28  C   UNL     1     -54.903 -36.328 -64.757  0.00  0.00    +0.000 C 
ENDBRANCH  24  26
ENDBRANCH  13  24
TORSDOF 5
ENDMDL
MODEL 13
REMARK VINA RESULT:    -5.415     10.840     12.963
REMARK INTER + INTRA:          -7.885
REMARK INTER:                  -6.924
REMARK INTRA:                  -0.960
REMARK UNBOUND:                -0.887
REMARK  Name = 
REMARK  8 active torsions:
REMARK  status: ('A' for Active; 'I' for Inactive)
REMARK    1  A    between atoms: C_1  and  C_2
REMARK    2  A    between atoms: C_4  and  C_5
REMARK    3  A    between atoms: C_5  and  S_6
REMARK    4  A    between atoms: S_6  and  C_8
REMARK    5  A    between atoms: C_20  and  C_21
REMARK    6  A    between atoms: C_21  and  C_23
REMARK    7  A    between atoms: C_23  and  C_24
REMARK    8  A    between atoms: C_23  and  C_25
REMARK                            x       y       z     vdW  Elec       q    Type
REMARK                         _______ _______ _______ _____ _____    ______ ____
ROOT
ATOM      1  C   UNL     1     -67.345 -40.386 -68.403  0.00  0.00    +0.000 A 
ATOM      2  N   UNL     1     -66.281 -40.197 -69.280  0.00  0.00    +0.000 N 
ATOM      3  C   UNL     1     -64.949 -40.424 -68.885  0.00  0.00    +0.000 A 
ATOM      4  C   UNL     1     -63.919 -40.649 -69.818  0.00  0.00    +0.000 A 
ATOM      5 BR   UNL     1     -64.299 -40.822 -71.668  0.00  0.00    +0.000 Br
ATOM      6  C   UNL     1     -62.592 -40.794 -69.403  0.00  0.00    +0.000 A 
ATOM      7  C   UNL     1     -62.275 -40.721 -68.050  0.00  0.00    +0.000 A 
ATOM      8  C   UNL     1     -63.291 -40.504 -67.100  0.00  0.00    +0.000 A 
ATOM      9 CL   UNL     1     -62.787 -40.505 -65.449  0.00  0.00    +0.000 Cl
ATOM     10  C   UNL     1     -64.629 -40.351 -67.520  0.00  0.00    +0.000 A 
ATOM     11  C   UNL     1     -65.766 -40.087 -66.601  0.00  0.00    +0.000 A 
ATOM     12  O   UNL     1     -65.565 -39.569 -65.507  0.00  0.00    +0.000 OA
ATOM     13  C   UNL     1     -67.174 -40.453 -67.061  0.00  0.00    +0.000 A 
ATOM     14  H   UNL     1     -66.505 -40.416 -70.261  0.00  0.00    +0.000 HD
ENDROOT
BRANCH   1  15
ATOM     15  S   UNL     1     -68.902 -40.741 -69.301  0.00  0.00    +0.000 S 
ATOM     16  O   UNL     1     -68.566 -41.942 -70.142  0.00  0.00    +0.000 OA
BRANCH  15  17
ATOM     17  C   UNL     1     -69.088 -39.298 -70.403  0.00  0.00    +0.000 C 
BRANCH  17  21
ATOM     18  C   UNL     1     -71.391 -34.865 -69.042  0.00  0.00    +0.000 C 
ATOM     19  C   UNL     1     -70.786 -36.201 -69.243  0.00  0.00    +0.000 A 
ATOM     20  C   UNL     1     -70.213 -36.861 -70.305  0.00  0.00    +0.000 A 
ATOM     21  C   UNL     1     -69.808 -38.123 -69.783  0.00  0.00    +0.000 A 
ATOM     22  N   UNL     1     -70.146 -38.208 -68.485  0.00  0.00    +0.000 NA
ATOM     23  O   UNL     1     -70.750 -37.010 -68.153  0.00  0.00    +0.000 OA
ENDBRANCH  17  21
ENDBRANCH  15  17
ENDBRANCH   1  15
BRANCH  13  24
ATOM     24  C   UNL     1     -68.153 -40.868 -65.986  0.00  0.00    +0.000 C 
ATOM     25  O   UNL     1     -68.950 -40.052 -65.524  0.00  0.00    +0.000 OA
BRANCH  24  26
ATOM     26  C   UNL     1     -68.119 -42.287 -65.416  0.00  0.00    +0.000 C 
ATOM     27  C   UNL     1     -68.538 -42.318 -63.948  0.00  0.00    +0.000 C 
ATOM     28  C   UNL     1     -68.979 -43.253 -66.234  0.00  0.00    +0.000 C 
ENDBRANCH  24  26
ENDBRANCH  13  24
TORSDOF 5
ENDMDL
MODEL 14
REMARK VINA RESULT:    -5.373     18.626     21.934
REMARK INTER + INTRA:          -7.830
REMARK INTER:                  -6.948
REMARK INTRA:                  -0.882
REMARK UNBOUND:                -0.887
REMARK  Name = 
REMARK  8 active torsions:
REMARK  status: ('A' for Active; 'I' for Inactive)
REMARK    1  A    between atoms: C_1  and  C_2
REMARK    2  A    between atoms: C_4  and  C_5
REMARK    3  A    between atoms: C_5  and  S_6
REMARK    4  A    between atoms: S_6  and  C_8
REMARK    5  A    between atoms: C_20  and  C_21
REMARK    6  A    between atoms: C_21  and  C_23
REMARK    7  A    between atoms: C_23  and  C_24
REMARK    8  A    between atoms: C_23  and  C_25
REMARK                            x       y       z     vdW  Elec       q    Type
REMARK                         _______ _______ _______ _____ _____    ______ ____
ROOT
ATOM      1  C   UNL     1     -63.848 -38.205 -83.246  0.00  0.00    +0.000 A 
ATOM      2  N   UNL     1     -63.438 -38.729 -84.468  0.00  0.00    +0.000 N 
ATOM      3  C   UNL     1     -62.715 -39.935 -84.551  0.00  0.00    +0.000 A 
ATOM      4  C   UNL     1     -62.652 -40.691 -85.736  0.00  0.00    +0.000 A 
ATOM      5 BR   UNL     1     -63.680 -40.210 -87.256  0.00  0.00    +0.000 Br
ATOM      6  C   UNL     1     -61.864 -41.843 -85.813  0.00  0.00    +0.000 A 
ATOM      7  C   UNL     1     -61.131 -42.258 -84.705  0.00  0.00    +0.000 A 
ATOM      8  C   UNL     1     -61.186 -41.521 -83.509  0.00  0.00    +0.000 A 
ATOM      9 CL   UNL     1     -60.292 -42.172 -82.183  0.00  0.00    +0.000 Cl
ATOM     10  C   UNL     1     -61.976 -40.355 -83.433  0.00  0.00    +0.000 A 
ATOM     11  C   UNL     1     -62.075 -39.490 -82.229  0.00  0.00    +0.000 A 
ATOM     12  O   UNL     1     -61.172 -39.488 -81.397  0.00  0.00    +0.000 OA
ATOM     13  C   UNL     1     -63.304 -38.600 -82.070  0.00  0.00    +0.000 A 
ATOM     14  H   UNL     1     -64.090 -38.539 -85.243  0.00  0.00    +0.000 HD
ENDROOT
BRANCH   1  15
ATOM     15  S   UNL     1     -65.314 -37.123 -83.435  0.00  0.00    +0.000 S 
ATOM     16  O   UNL     1     -66.474 -38.034 -83.137  0.00  0.00    +0.000 OA
BRANCH  15  17
ATOM     17  C   UNL     1     -65.325 -36.741 -85.220  0.00  0.00    +0.000 C 
BRANCH  17  21
ATOM     18  C   UNL     1     -67.212 -32.064 -86.392  0.00  0.00    +0.000 C 
ATOM     19  C   UNL     1     -66.487 -33.309 -86.055  0.00  0.00    +0.000 A 
ATOM     20  C   UNL     1     -66.856 -34.590 -85.713  0.00  0.00    +0.000 A 
ATOM     21  C   UNL     1     -65.631 -35.299 -85.551  0.00  0.00    +0.000 A 
ATOM     22  N   UNL     1     -64.594 -34.470 -85.765  0.00  0.00    +0.000 NA
ATOM     23  O   UNL     1     -65.131 -33.237 -86.082  0.00  0.00    +0.000 OA
ENDBRANCH  17  21
ENDBRANCH  15  17
ENDBRANCH   1  15
BRANCH  13  24
ATOM     24  C   UNL     1     -63.760 -38.319 -80.656  0.00  0.00    +0.000 C 
ATOM     25  O   UNL     1     -64.469 -39.130 -80.061  0.00  0.00    +0.000 OA
BRANCH  24  26
ATOM     26  C   UNL     1     -63.402 -36.996 -79.977  0.00  0.00    +0.000 C 
ATOM     27  C   UNL     1     -64.630 -36.319 -79.372  0.00  0.00    +0.000 C 
ATOM     28  C   UNL     1     -62.316 -37.175 -78.912  0.00  0.00    +0.000 C 
ENDBRANCH  24  26
ENDBRANCH  13  24
TORSDOF 5
ENDMDL
MODEL 15
REMARK VINA RESULT:    -5.231     10.402     12.707
REMARK INTER + INTRA:          -7.647
REMARK INTER:                  -6.711
REMARK INTRA:                  -0.935
REMARK UNBOUND:                -0.887
REMARK  Name = 
REMARK  8 active torsions:
REMARK  status: ('A' for Active; 'I' for Inactive)
REMARK    1  A    between atoms: C_1  and  C_2
REMARK    2  A    between atoms: C_4  and  C_5
REMARK    3  A    between atoms: C_5  and  S_6
REMARK    4  A    between atoms: S_6  and  C_8
REMARK    5  A    between atoms: C_20  and  C_21
REMARK    6  A    between atoms: C_21  and  C_23
REMARK    7  A    between atoms: C_23  and  C_24
REMARK    8  A    between atoms: C_23  and  C_25
REMARK                            x       y       z     vdW  Elec       q    Type
REMARK                         _______ _______ _______ _____ _____    ______ ____
ROOT
ATOM      1  C   UNL     1     -64.536 -43.311 -69.484  0.00  0.00    +0.000 A 
ATOM      2  N   UNL     1     -65.668 -43.969 -69.011  0.00  0.00    +0.000 N 
ATOM      3  C   UNL     1     -66.609 -43.320 -68.188  0.00  0.00    +0.000 A 
ATOM      4  C   UNL     1     -67.927 -43.792 -68.041  0.00  0.00    +0.000 A 
ATOM      5 BR   UNL     1     -68.564 -45.246 -69.079  0.00  0.00    +0.000 Br
ATOM      6  C   UNL     1     -68.817 -43.175 -67.158  0.00  0.00    +0.000 A 
ATOM      7  C   UNL     1     -68.405 -42.074 -66.412  0.00  0.00    +0.000 A 
ATOM      8  C   UNL     1     -67.094 -41.583 -66.549  0.00  0.00    +0.000 A 
ATOM      9 CL   UNL     1     -66.721 -40.171 -65.627  0.00  0.00    +0.000 Cl
ATOM     10  C   UNL     1     -66.194 -42.209 -67.435  0.00  0.00    +0.000 A 
ATOM     11  C   UNL     1     -64.782 -41.788 -67.627  0.00  0.00    +0.000 A 
ATOM     12  O   UNL     1     -64.200 -41.168 -66.742  0.00  0.00    +0.000 OA
ATOM     13  C   UNL     1     -64.080 -42.163 -68.929  0.00  0.00    +0.000 A 
ATOM     14  H   UNL     1     -66.045 -44.670 -69.663  0.00  0.00    +0.000 HD
ENDROOT
BRANCH   1  15
ATOM     15  S   UNL     1     -63.916 -44.070 -71.033  0.00  0.00    +0.000 S 
ATOM     16  O   UNL     1     -62.438 -43.790 -71.004  0.00  0.00    +0.000 OA
BRANCH  15  17
ATOM     17  C   UNL     1     -64.674 -43.041 -72.335  0.00  0.00    +0.000 C 
BRANCH  17  21
ATOM     18  C   UNL     1     -68.817 -44.901 -74.820  0.00  0.00    +0.000 C 
ATOM     19  C   UNL     1     -67.758 -44.351 -73.946  0.00  0.00    +0.000 A 
ATOM     20  C   UNL     1     -66.400 -44.160 -74.062  0.00  0.00    +0.000 A 
ATOM     21  C   UNL     1     -66.006 -43.545 -72.839  0.00  0.00    +0.000 A 
ATOM     22  N   UNL     1     -67.075 -43.402 -72.036  0.00  0.00    +0.000 NA
ATOM     23  O   UNL     1     -68.161 -43.901 -72.730  0.00  0.00    +0.000 OA
ENDBRANCH  17  21
ENDBRANCH  15  17
ENDBRANCH   1  15
BRANCH  13  24
ATOM     24  C   UNL     1     -63.024 -41.204 -69.432  0.00  0.00    +0.000 C 
ATOM     25  O   UNL     1     -61.831 -41.458 -69.272  0.00  0.00    +0.000 OA
BRANCH  24  26
ATOM     26  C   UNL     1     -63.429 -39.881 -70.083  0.00  0.00    +0.000 C 
ATOM     27  C   UNL     1     -64.835 -39.948 -70.675  0.00  0.00    +0.000 C 
ATOM     28  C   UNL     1     -63.319 -38.706 -69.108  0.00  0.00    +0.000 C 
ENDBRANCH  24  26
ENDBRANCH  13  24
TORSDOF 5
ENDMDL
MODEL 16
REMARK VINA RESULT:    -5.125     10.560     13.130
REMARK INTER + INTRA:          -7.510
REMARK INTER:                  -6.369
REMARK INTRA:                  -1.140
REMARK UNBOUND:                -0.887
REMARK  Name = 
REMARK  8 active torsions:
REMARK  status: ('A' for Active; 'I' for Inactive)
REMARK    1  A    between atoms: C_1  and  C_2
REMARK    2  A    between atoms: C_4  and  C_5
REMARK    3  A    between atoms: C_5  and  S_6
REMARK    4  A    between atoms: S_6  and  C_8
REMARK    5  A    between atoms: C_20  and  C_21
REMARK    6  A    between atoms: C_21  and  C_23
REMARK    7  A    between atoms: C_23  and  C_24
REMARK    8  A    between atoms: C_23  and  C_25
REMARK                            x       y       z     vdW  Elec       q    Type
REMARK                         _______ _______ _______ _____ _____    ______ ____
ROOT
ATOM      1  C   UNL     1     -65.599 -41.138 -70.220  0.00  0.00    +0.000 A 
ATOM      2  N   UNL     1     -66.937 -41.134 -69.839  0.00  0.00    +0.000 N 
ATOM      3  C   UNL     1     -67.348 -40.640 -68.586  0.00  0.00    +0.000 A 
ATOM      4  C   UNL     1     -68.673 -40.238 -68.337  0.00  0.00    +0.000 A 
ATOM      5 BR   UNL     1     -69.956 -40.187 -69.733  0.00  0.00    +0.000 Br
ATOM      6  C   UNL     1     -69.072 -39.825 -67.062  0.00  0.00    +0.000 A 
ATOM      7  C   UNL     1     -68.150 -39.803 -66.020  0.00  0.00    +0.000 A 
ATOM      8  C   UNL     1     -66.818 -40.193 -66.249  0.00  0.00    +0.000 A 
ATOM      9 CL   UNL     1     -65.751 -40.055 -64.899  0.00  0.00    +0.000 Cl
ATOM     10  C   UNL     1     -66.418 -40.617 -67.534  0.00  0.00    +0.000 A 
ATOM     11  C   UNL     1     -65.047 -41.079 -67.870  0.00  0.00    +0.000 A 
ATOM     12  O   UNL     1     -64.314 -41.522 -66.991  0.00  0.00    +0.000 OA
ATOM     13  C   UNL     1     -64.590 -41.008 -69.325  0.00  0.00    +0.000 A 
ATOM     14  H   UNL     1     -67.592 -40.987 -70.620  0.00  0.00    +0.000 HD
ENDROOT
BRANCH   1  15
ATOM     15  S   UNL     1     -65.418 -41.119 -72.043  0.00  0.00    +0.000 S 
ATOM     16  O   UNL     1     -66.742 -40.594 -72.530  0.00  0.00    +0.000 OA
BRANCH  15  17
ATOM     17  C   UNL     1     -65.305 -42.889 -72.472  0.00  0.00    +0.000 C 
BRANCH  17  21
ATOM     18  C   UNL     1     -69.507 -45.114 -74.520  0.00  0.00    +0.000 C 
ATOM     19  C   UNL     1     -68.406 -44.489 -73.754  0.00  0.00    +0.000 A 
ATOM     20  C   UNL     1     -67.117 -44.102 -74.040  0.00  0.00    +0.000 A 
ATOM     21  C   UNL     1     -66.623 -43.534 -72.830  0.00  0.00    +0.000 A 
ATOM     22  N   UNL     1     -67.567 -43.605 -71.876  0.00  0.00    +0.000 NA
ATOM     23  O   UNL     1     -68.674 -44.195 -72.455  0.00  0.00    +0.000 OA
ENDBRANCH  17  21
ENDBRANCH  15  17
ENDBRANCH   1  15
BRANCH  13  24
ATOM     24  C   UNL     1     -63.116 -40.769 -69.564  0.00  0.00    +0.000 C 
ATOM     25  O   UNL     1     -62.666 -39.624 -69.557  0.00  0.00    +0.000 OA
BRANCH  24  26
ATOM     26  C   UNL     1     -62.185 -41.940 -69.881  0.00  0.00    +0.000 C 
ATOM     27  C   UNL     1     -61.462 -41.743 -71.211  0.00  0.00    +0.000 C 
ATOM     28  C   UNL     1     -61.173 -42.187 -68.759  0.00  0.00    +0.000 C 
ENDBRANCH  24  26
ENDBRANCH  13  24
TORSDOF 5
ENDMDL
MODEL 17
REMARK VINA RESULT:    -5.070      5.008      7.437
REMARK INTER + INTRA:          -7.439
REMARK INTER:                  -6.709
REMARK INTRA:                  -0.730
REMARK UNBOUND:                -0.887
REMARK  Name = 
REMARK  8 active torsions:
REMARK  status: ('A' for Active; 'I' for Inactive)
REMARK    1  A    between atoms: C_1  and  C_2
REMARK    2  A    between atoms: C_4  and  C_5
REMARK    3  A    between atoms: C_5  and  S_6
REMARK    4  A    between atoms: S_6  and  C_8
REMARK    5  A    between atoms: C_20  and  C_21
REMARK    6  A    between atoms: C_21  and  C_23
REMARK    7  A    between atoms: C_23  and  C_24
REMARK    8  A    between atoms: C_23  and  C_25
REMARK                            x       y       z     vdW  Elec       q    Type
REMARK                         _______ _______ _______ _____ _____    ______ ____
ROOT
ATOM      1  C   UNL     1     -60.178 -42.141 -60.923  0.00  0.00    +0.000 A 
ATOM      2  N   UNL     1     -60.396 -40.869 -61.443  0.00  0.00    +0.000 N 
ATOM      3  C   UNL     1     -61.433 -40.043 -60.967  0.00  0.00    +0.000 A 
ATOM      4  C   UNL     1     -61.427 -38.649 -61.155  0.00  0.00    +0.000 A 
ATOM      5 BR   UNL     1     -59.931 -37.775 -61.927  0.00  0.00    +0.000 Br
ATOM      6  C   UNL     1     -62.507 -37.863 -60.741  0.00  0.00    +0.000 A 
ATOM      7  C   UNL     1     -63.605 -38.458 -60.128  0.00  0.00    +0.000 A 
ATOM      8  C   UNL     1     -63.627 -39.850 -59.923  0.00  0.00    +0.000 A 
ATOM      9 CL   UNL     1     -65.008 -40.464 -59.089  0.00  0.00    +0.000 Cl
ATOM     10  C   UNL     1     -62.541 -40.644 -60.347  0.00  0.00    +0.000 A 
ATOM     11  C   UNL     1     -62.483 -42.122 -60.207  0.00  0.00    +0.000 A 
ATOM     12  O   UNL     1     -63.520 -42.772 -60.115  0.00  0.00    +0.000 OA
ATOM     13  C   UNL     1     -61.116 -42.800 -60.203  0.00  0.00    +0.000 A 
ATOM     14  H   UNL     1     -59.537 -40.387 -61.743  0.00  0.00    +0.000 HD
ENDROOT
BRANCH   1  15
ATOM     15  S   UNL     1     -58.438 -42.670 -61.151  0.00  0.00    +0.000 S 
ATOM     16  O   UNL     1     -57.723 -41.402 -61.529  0.00  0.00    +0.000 OA
BRANCH  15  17
ATOM     17  C   UNL     1     -58.518 -43.748 -62.621  0.00  0.00    +0.000 C 
BRANCH  17  21
ATOM     18  C   UNL     1     -57.114 -41.668 -67.149  0.00  0.00    +0.000 C 
ATOM     19  C   UNL     1     -57.312 -42.275 -65.815  0.00  0.00    +0.000 A 
ATOM     20  C   UNL     1     -58.402 -42.538 -65.016  0.00  0.00    +0.000 A 
ATOM     21  C   UNL     1     -57.868 -43.173 -63.858  0.00  0.00    +0.000 A 
ATOM     22  N   UNL     1     -56.531 -43.260 -63.962  0.00  0.00    +0.000 NA
ATOM     23  O   UNL     1     -56.191 -42.704 -65.181  0.00  0.00    +0.000 OA
ENDBRANCH  17  21
ENDBRANCH  15  17
ENDBRANCH   1  15
BRANCH  13  24
ATOM     24  C   UNL     1     -60.988 -44.065 -59.383  0.00  0.00    +0.000 C 
ATOM     25  O   UNL     1     -60.314 -44.069 -58.353  0.00  0.00    +0.000 OA
BRANCH  24  26
ATOM     26  C   UNL     1     -61.637 -45.364 -59.860  0.00  0.00    +0.000 C 
ATOM     27  C   UNL     1     -61.049 -45.838 -61.186  0.00  0.00    +0.000 C 
ATOM     28  C   UNL     1     -61.538 -46.473 -58.809  0.00  0.00    +0.000 C 
ENDBRANCH  24  26
ENDBRANCH  13  24
TORSDOF 5
ENDMDL
MODEL 18
REMARK VINA RESULT:    -4.814     19.264     20.926
REMARK INTER + INTRA:          -7.108
REMARK INTER:                  -6.146
REMARK INTRA:                  -0.962
REMARK UNBOUND:                -0.887
REMARK  Name = 
REMARK  8 active torsions:
REMARK  status: ('A' for Active; 'I' for Inactive)
REMARK    1  A    between atoms: C_1  and  C_2
REMARK    2  A    between atoms: C_4  and  C_5
REMARK    3  A    between atoms: C_5  and  S_6
REMARK    4  A    between atoms: S_6  and  C_8
REMARK    5  A    between atoms: C_20  and  C_21
REMARK    6  A    between atoms: C_21  and  C_23
REMARK    7  A    between atoms: C_23  and  C_24
REMARK    8  A    between atoms: C_23  and  C_25
REMARK                            x       y       z     vdW  Elec       q    Type
REMARK                         _______ _______ _______ _____ _____    ______ ____
ROOT
ATOM      1  C   UNL     1     -45.060 -57.503 -73.955  0.00  0.00    +0.000 A 
ATOM      2  N   UNL     1     -44.679 -56.165 -73.927  0.00  0.00    +0.000 N 
ATOM      3  C   UNL     1     -43.963 -55.623 -72.842  0.00  0.00    +0.000 A 
ATOM      4  C   UNL     1     -43.217 -54.435 -72.955  0.00  0.00    +0.000 A 
ATOM      5 BR   UNL     1     -43.000 -53.575 -74.631  0.00  0.00    +0.000 Br
ATOM      6  C   UNL     1     -42.579 -53.878 -71.842  0.00  0.00    +0.000 A 
ATOM      7  C   UNL     1     -42.674 -54.503 -70.602  0.00  0.00    +0.000 A 
ATOM      8  C   UNL     1     -43.408 -55.696 -70.470  0.00  0.00    +0.000 A 
ATOM      9 CL   UNL     1     -43.394 -56.416 -68.900  0.00  0.00    +0.000 Cl
ATOM     10  C   UNL     1     -44.057 -56.254 -71.590  0.00  0.00    +0.000 A 
ATOM     11  C   UNL     1     -44.882 -57.489 -71.548  0.00  0.00    +0.000 A 
ATOM     12  O   UNL     1     -45.395 -57.850 -70.493  0.00  0.00    +0.000 OA
ATOM     13  C   UNL     1     -45.089 -58.272 -72.841  0.00  0.00    +0.000 A 
ATOM     14  H   UNL     1     -44.459 -55.774 -74.854  0.00  0.00    +0.000 HD
ENDROOT
BRANCH   1  15
ATOM     15  S   UNL     1     -45.287 -58.100 -75.673  0.00  0.00    +0.000 S 
ATOM     16  O   UNL     1     -44.421 -57.181 -76.491  0.00  0.00    +0.000 OA
BRANCH  15  17
ATOM     17  C   UNL     1     -47.035 -57.713 -76.024  0.00  0.00    +0.000 C 
BRANCH  17  21
ATOM     18  C   UNL     1     -50.649 -61.324 -75.185  0.00  0.00    +0.000 C 
ATOM     19  C   UNL     1     -49.540 -60.422 -75.567  0.00  0.00    +0.000 A 
ATOM     20  C   UNL     1     -49.182 -59.130 -75.253  0.00  0.00    +0.000 A 
ATOM     21  C   UNL     1     -47.967 -58.900 -75.961  0.00  0.00    +0.000 A 
ATOM     22  N   UNL     1     -47.639 -59.994 -76.670  0.00  0.00    +0.000 NA
ATOM     23  O   UNL     1     -48.617 -60.937 -76.419  0.00  0.00    +0.000 OA
ENDBRANCH  17  21
ENDBRANCH  15  17
ENDBRANCH   1  15
BRANCH  13  24
ATOM     24  C   UNL     1     -45.254 -59.770 -72.709  0.00  0.00    +0.000 C 
ATOM     25  O   UNL     1     -46.377 -60.272 -72.722  0.00  0.00    +0.000 OA
BRANCH  24  26
ATOM     26  C   UNL     1     -44.034 -60.665 -72.493  0.00  0.00    +0.000 C 
ATOM     27  C   UNL     1     -43.830 -60.997 -71.016  0.00  0.00    +0.000 C 
ATOM     28  C   UNL     1     -44.114 -61.952 -73.320  0.00  0.00    +0.000 C 
ENDBRANCH  24  26
ENDBRANCH  13  24
TORSDOF 5
ENDMDL
MODEL 19
REMARK VINA RESULT:    -4.778     17.367     19.550
REMARK INTER + INTRA:          -7.062
REMARK INTER:                  -6.059
REMARK INTRA:                  -1.002
REMARK UNBOUND:                -0.887
REMARK  Name = 
REMARK  8 active torsions:
REMARK  status: ('A' for Active; 'I' for Inactive)
REMARK    1  A    between atoms: C_1  and  C_2
REMARK    2  A    between atoms: C_4  and  C_5
REMARK    3  A    between atoms: C_5  and  S_6
REMARK    4  A    between atoms: S_6  and  C_8
REMARK    5  A    between atoms: C_20  and  C_21
REMARK    6  A    between atoms: C_21  and  C_23
REMARK    7  A    between atoms: C_23  and  C_24
REMARK    8  A    between atoms: C_23  and  C_25
REMARK                            x       y       z     vdW  Elec       q    Type
REMARK                         _______ _______ _______ _____ _____    ______ ____
ROOT
ATOM      1  C   UNL     1     -48.860 -25.114 -63.204  0.00  0.00    +0.000 A 
ATOM      2  N   UNL     1     -49.367 -26.364 -62.864  0.00  0.00    +0.000 N 
ATOM      3  C   UNL     1     -48.525 -27.478 -62.680  0.00  0.00    +0.000 A 
ATOM      4  C   UNL     1     -48.931 -28.611 -61.951  0.00  0.00    +0.000 A 
ATOM      5 BR   UNL     1     -50.588 -28.636 -61.028  0.00  0.00    +0.000 Br
ATOM      6  C   UNL     1     -48.105 -29.735 -61.850  0.00  0.00    +0.000 A 
ATOM      7  C   UNL     1     -46.861 -29.740 -62.472  0.00  0.00    +0.000 A 
ATOM      8  C   UNL     1     -46.433 -28.614 -63.200  0.00  0.00    +0.000 A 
ATOM      9 CL   UNL     1     -44.843 -28.710 -63.867  0.00  0.00    +0.000 Cl
ATOM     10  C   UNL     1     -47.269 -27.484 -63.308  0.00  0.00    +0.000 A 
ATOM     11  C   UNL     1     -46.925 -26.261 -64.079  0.00  0.00    +0.000 A 
ATOM     12  O   UNL     1     -46.113 -26.322 -64.998  0.00  0.00    +0.000 OA
ATOM     13  C   UNL     1     -47.616 -24.951 -63.715  0.00  0.00    +0.000 A 
ATOM     14  H   UNL     1     -50.203 -26.325 -62.264  0.00  0.00    +0.000 HD
ENDROOT
BRANCH   1  15
ATOM     15  S   UNL     1     -49.983 -23.766 -62.675  0.00  0.00    +0.000 S 
ATOM     16  O   UNL     1     -49.060 -22.754 -62.051  0.00  0.00    +0.000 OA
BRANCH  15  17
ATOM     17  C   UNL     1     -50.972 -24.540 -61.351  0.00  0.00    +0.000 C 
BRANCH  17  21
ATOM     18  C   UNL     1     -48.422 -25.294 -56.909  0.00  0.00    +0.000 C 
ATOM     19  C   UNL     1     -49.207 -24.895 -58.098  0.00  0.00    +0.000 A 
ATOM     20  C   UNL     1     -49.402 -25.418 -59.356  0.00  0.00    +0.000 A 
ATOM     21  C   UNL     1     -50.317 -24.528 -59.989  0.00  0.00    +0.000 A 
ATOM     22  N   UNL     1     -50.627 -23.523 -59.153  0.00  0.00    +0.000 NA
ATOM     23  O   UNL     1     -49.937 -23.757 -57.978  0.00  0.00    +0.000 OA
ENDBRANCH  17  21
ENDBRANCH  15  17
ENDBRANCH   1  15
BRANCH  13  24
ATOM     24  C   UNL     1     -46.823 -23.681 -63.930  0.00  0.00    +0.000 C 
ATOM     25  O   UNL     1     -46.025 -23.297 -63.076  0.00  0.00    +0.000 OA
BRANCH  24  26
ATOM     26  C   UNL     1     -47.052 -22.829 -65.179  0.00  0.00    +0.000 C 
ATOM     27  C   UNL     1     -45.764 -22.630 -65.974  0.00  0.00    +0.000 C 
ATOM     28  C   UNL     1     -48.145 -23.414 -66.078  0.00  0.00    +0.000 C 
ENDBRANCH  24  26
ENDBRANCH  13  24
TORSDOF 5
ENDMDL
MODEL 20
REMARK VINA RESULT:    -4.722     18.672     21.533
REMARK INTER + INTRA:          -6.989
REMARK INTER:                  -6.160
REMARK INTRA:                  -0.829
REMARK UNBOUND:                -0.887
REMARK  Name = 
REMARK  8 active torsions:
REMARK  status: ('A' for Active; 'I' for Inactive)
REMARK    1  A    between atoms: C_1  and  C_2
REMARK    2  A    between atoms: C_4  and  C_5
REMARK    3  A    between atoms: C_5  and  S_6
REMARK    4  A    between atoms: S_6  and  C_8
REMARK    5  A    between atoms: C_20  and  C_21
REMARK    6  A    between atoms: C_21  and  C_23
REMARK    7  A    between atoms: C_23  and  C_24
REMARK    8  A    between atoms: C_23  and  C_25
REMARK                            x       y       z     vdW  Elec       q    Type
REMARK                         _______ _______ _______ _____ _____    ______ ____
ROOT
ATOM      1  C   UNL     1     -64.128 -38.688 -83.012  0.00  0.00    +0.000 A 
ATOM      2  N   UNL     1     -63.030 -39.220 -83.682  0.00  0.00    +0.000 N 
ATOM      3  C   UNL     1     -61.995 -39.884 -82.993  0.00  0.00    +0.000 A 
ATOM      4  C   UNL     1     -61.115 -40.773 -83.640  0.00  0.00    +0.000 A 
ATOM      5 BR   UNL     1     -61.376 -41.255 -85.455  0.00  0.00    +0.000 Br
ATOM      6  C   UNL     1     -60.050 -41.357 -82.950  0.00  0.00    +0.000 A 
ATOM      7  C   UNL     1     -59.851 -41.067 -81.603  0.00  0.00    +0.000 A 
ATOM      8  C   UNL     1     -60.723 -40.187 -80.937  0.00  0.00    +0.000 A 
ATOM      9 CL   UNL     1     -60.419 -39.960 -79.253  0.00  0.00    +0.000 Cl
ATOM     10  C   UNL     1     -61.794 -39.591 -81.635  0.00  0.00    +0.000 A 
ATOM     11  C   UNL     1     -62.749 -38.626 -81.032  0.00  0.00    +0.000 A 
ATOM     12  O   UNL     1     -62.422 -37.972 -80.046  0.00  0.00    +0.000 OA
ATOM     13  C   UNL     1     -64.121 -38.458 -81.678  0.00  0.00    +0.000 A 
ATOM     14  H   UNL     1     -63.247 -39.576 -84.623  0.00  0.00    +0.000 HD
ENDROOT
BRANCH   1  15
ATOM     15  S   UNL     1     -65.589 -38.564 -84.111  0.00  0.00    +0.000 S 
ATOM     16  O   UNL     1     -66.250 -39.910 -83.984  0.00  0.00    +0.000 OA
BRANCH  15  17
ATOM     17  C   UNL     1     -64.852 -38.437 -85.776  0.00  0.00    +0.000 C 
BRANCH  17  21
ATOM     18  C   UNL     1     -67.299 -35.570 -89.325  0.00  0.00    +0.000 C 
ATOM     19  C   UNL     1     -66.555 -36.210 -88.217  0.00  0.00    +0.000 A 
ATOM     20  C   UNL     1     -66.337 -37.507 -87.811  0.00  0.00    +0.000 A 
ATOM     21  C   UNL     1     -65.491 -37.400 -86.669  0.00  0.00    +0.000 A 
ATOM     22  N   UNL     1     -65.244 -36.106 -86.405  0.00  0.00    +0.000 NA
ATOM     23  O   UNL     1     -65.903 -35.371 -87.372  0.00  0.00    +0.000 OA
ENDBRANCH  17  21
ENDBRANCH  15  17
ENDBRANCH   1  15
BRANCH  13  24
ATOM     24  C   UNL     1     -65.268 -38.105 -80.756  0.00  0.00    +0.000 C 
ATOM     25  O   UNL     1     -65.818 -38.980 -80.090  0.00  0.00    +0.000 OA
BRANCH  24  26
ATOM     26  C   UNL     1     -65.796 -36.671 -80.695  0.00  0.00    +0.000 C 
ATOM     27  C   UNL     1     -67.320 -36.632 -80.610  0.00  0.00    +0.000 C 
ATOM     28  C   UNL     1     -65.179 -35.883 -79.537  0.00  0.00    +0.000 C 
ENDBRANCH  24  26
ENDBRANCH  13  24
TORSDOF 5
ENDMDL
