REMARK VINA RESULT:    -6.220      3.093      4.860
REMARK INTER + INTRA:          -8.342
REMARK INTER:                  -7.743
REMARK INTRA:                  -0.598
REMARK UNBOUND:                -0.667
REMARK  Name = 
REMARK  6 active torsions:
REMARK  status: ('A' for Active; 'I' for Inactive)
REMARK    1  A    between atoms: C_1  and  C_2
REMARK    2  A    between atoms: C_2  and  C_4
REMARK    3  A    between atoms: C_5  and  S_6
REMARK    4  A    between atoms: S_6  and  C_8
REMARK    5  A    between atoms: C_8  and  C_9
REMARK    6  A    between atoms: C_11  and  C_12
REMARK                            x       y       z     vdW  Elec       q    Type
REMARK                         _______ _______ _______ _____ _____    ______ ____
ROOT
ATOM      1  C   UNL     1     -55.669 -41.491 -64.307  0.00  0.00    +0.000 A 
ATOM      2  C   UNL     1     -56.025 -42.534 -63.523  0.00  0.00    +0.000 A 
ATOM      3  N   UNL     1     -55.111 -43.395 -62.948  0.00  0.00    +0.000 N 
ATOM      4  C   UNL     1     -53.731 -43.328 -63.201  0.00  0.00    +0.000 A 
ATOM      5  C   UNL     1     -52.834 -44.203 -62.558  0.00  0.00    +0.000 A 
ATOM      6 BR   UNL     1     -53.463 -45.550 -61.375  0.00  0.00    +0.000 Br
ATOM      7  C   UNL     1     -51.460 -44.102 -62.765  0.00  0.00    +0.000 A 
ATOM      8  C   UNL     1     -50.962 -43.120 -63.614  0.00  0.00    +0.000 A 
ATOM      9  C   UNL     1     -51.830 -42.221 -64.245  0.00  0.00    +0.000 A 
ATOM     10 CL   UNL     1     -51.062 -41.053 -65.264  0.00  0.00    +0.000 Cl
ATOM     11  C   UNL     1     -53.219 -42.307 -64.022  0.00  0.00    +0.000 A 
ATOM     12  C   UNL     1     -54.206 -41.382 -64.643  0.00  0.00    +0.000 A 
ATOM     13  O   UNL     1     -53.838 -40.557 -65.472  0.00  0.00    +0.000 OA
ATOM     14  H   UNL     1     -55.472 -44.313 -62.680  0.00  0.00    +0.000 HD
ENDROOT
BRANCH   1  16
ATOM     15  C   UNL     1     -57.275 -40.774 -66.218  0.00  0.00    +0.000 C 
ATOM     16  C   UNL     1     -56.628 -40.484 -64.883  0.00  0.00    +0.000 C 
ATOM     17  O   UNL     1     -56.873 -39.421 -64.313  0.00  0.00    +0.000 OA
ENDBRANCH   1  16
BRANCH   2  18
ATOM     18  S   UNL     1     -57.776 -42.996 -63.304  0.00  0.00    +0.000 S 
ATOM     19  O   UNL     1     -57.704 -44.427 -62.840  0.00  0.00    +0.000 OA
BRANCH  18  20
ATOM     20  C   UNL     1     -58.169 -42.004 -61.820  0.00  0.00    +0.000 C 
BRANCH  20  21
ATOM     21  C   UNL     1     -59.595 -42.173 -61.406  0.00  0.00    +0.000 A 
ATOM     22  C   UNL     1     -60.182 -43.198 -60.616  0.00  0.00    +0.000 A 
ATOM     23  C   UNL     1     -61.495 -42.823 -60.484  0.00  0.00    +0.000 A 
ATOM     24  C   UNL     1     -62.668 -43.394 -59.795  0.00  0.00    +0.000 C 
ATOM     25  O   UNL     1     -61.689 -41.653 -61.146  0.00  0.00    +0.000 OA
ATOM     26  N   UNL     1     -60.501 -41.239 -61.722  0.00  0.00    +0.000 NA
ENDBRANCH  20  21
ENDBRANCH  18  20
ENDBRANCH   2  18
TORSDOF 4
