REMARK  Name = 
REMARK  6 active torsions:
REMARK  status: ('A' for Active; 'I' for Inactive)
REMARK    1  A    between atoms: C_1  and  C_2
REMARK    2  A    between atoms: C_2  and  C_4
REMARK    3  A    between atoms: C_5  and  S_6
REMARK    4  A    between atoms: S_6  and  C_8
REMARK    5  A    between atoms: C_8  and  C_9
REMARK    6  A    between atoms: C_11  and  C_12
REMARK                            x       y       z     vdW  Elec       q    Type
REMARK                         _______ _______ _______ _____ _____    ______ ____
ROOT
ATOM      1  C   UNL     1       3.167  -0.657  -1.114  0.00  0.00    +0.000 A 
ATOM      2  C   UNL     1       2.780  -0.546  -2.405  0.00  0.00    +0.000 A 
ATOM      3  N   UNL     1       3.437  -1.172  -3.447  0.00  0.00    +0.000 N 
ATOM      4  C   UNL     1       4.664  -1.841  -3.283  0.00  0.00    +0.000 A 
ATOM      5  C   UNL     1       5.340  -2.397  -4.383  0.00  0.00    +0.000 A 
ATOM      6 BR   UNL     1       4.664  -2.192  -6.148  0.00  0.00    +0.000 Br
ATOM      7  C   UNL     1       6.528  -3.107  -4.216  0.00  0.00    +0.000 A 
ATOM      8  C   UNL     1       7.051  -3.277  -2.941  0.00  0.00    +0.000 A 
ATOM      9  C   UNL     1       6.386  -2.754  -1.822  0.00  0.00    +0.000 A 
ATOM     10 CL   UNL     1       7.169  -3.041  -0.307  0.00  0.00    +0.000 Cl
ATOM     11  C   UNL     1       5.180  -2.043  -1.991  0.00  0.00    +0.000 A 
ATOM     12  C   UNL     1       4.423  -1.452  -0.859  0.00  0.00    +0.000 A 
ATOM     13  O   UNL     1       4.838  -1.575   0.281  0.00  0.00    +0.000 OA
ATOM     14  H   UNL     1       3.292  -0.758  -4.369  0.00  0.00    +0.000 HD
ENDROOT
BRANCH   1  16
ATOM     15  C   UNL     1       2.663  -0.560   1.447  0.00  0.00    +0.000 C 
ATOM     16  C   UNL     1       2.459  -0.006   0.056  0.00  0.00    +0.000 C 
ATOM     17  O   UNL     1       1.713   0.962  -0.099  0.00  0.00    +0.000 OA
ENDBRANCH   1  16
BRANCH   2  18
ATOM     18  S   UNL     1       1.449   0.596  -2.905  0.00  0.00    +0.000 S 
ATOM     19  O   UNL     1       2.124   1.510  -3.893  0.00  0.00    +0.000 OA
BRANCH  18  20
ATOM     20  C   UNL     1       0.420  -0.546  -3.896  0.00  0.00    +0.000 C 
BRANCH  20  21
ATOM     21  C   UNL     1      -0.826   0.102  -4.411  0.00  0.00    +0.000 A 
ATOM     22  C   UNL     1      -1.036   1.409  -4.924  0.00  0.00    +0.000 A 
ATOM     23  C   UNL     1      -2.369   1.444  -5.258  0.00  0.00    +0.000 A 
ATOM     24  C   UNL     1      -3.277   2.476  -5.791  0.00  0.00    +0.000 C 
ATOM     25  O   UNL     1      -2.918   0.227  -5.004  0.00  0.00    +0.000 OA
ATOM     26  N   UNL     1      -1.956  -0.618  -4.481  0.00  0.00    +0.000 NA
ENDBRANCH  20  21
ENDBRANCH  18  20
ENDBRANCH   2  18
TORSDOF 4
