REMARK VINA RESULT:    -6.821      0.000      0.000
REMARK INTER + INTRA:          -9.136
REMARK INTER:                  -8.417
REMARK INTRA:                  -0.720
REMARK UNBOUND:                -0.720
REMARK  Name = 
REMARK  6 active torsions:
REMARK  status: ('A' for Active; 'I' for Inactive)
REMARK    1  A    between atoms: C_1  and  C_2
REMARK    2  A    between atoms: C_2  and  C_4
REMARK    3  A    between atoms: C_5  and  S_6
REMARK    4  A    between atoms: S_6  and  C_8
REMARK    5  A    between atoms: C_8  and  C_9
REMARK    6  A    between atoms: C_11  and  C_12
REMARK                            x       y       z     vdW  Elec       q    Type
REMARK                         _______ _______ _______ _____ _____    ______ ____
ROOT
ATOM      1  C   UNL     1     -56.124 -42.772 -76.542  0.00  0.00    +0.000 A 
ATOM      2  C   UNL     1     -55.126 -43.615 -76.180  0.00  0.00    +0.000 A 
ATOM      3  N   UNL     1     -55.169 -44.979 -76.410  0.00  0.00    +0.000 N 
ATOM      4  C   UNL     1     -56.315 -45.635 -76.897  0.00  0.00    +0.000 A 
ATOM      5  C   UNL     1     -56.341 -47.031 -77.053  0.00  0.00    +0.000 A 
ATOM      6 BR   UNL     1     -54.867 -48.101 -76.511  0.00  0.00    +0.000 Br
ATOM      7  C   UNL     1     -57.451 -47.677 -77.598  0.00  0.00    +0.000 A 
ATOM      8  C   UNL     1     -58.552 -46.926 -78.004  0.00  0.00    +0.000 A 
ATOM      9  C   UNL     1     -58.549 -45.537 -77.868  0.00  0.00    +0.000 A 
ATOM     10 CL   UNL     1     -59.995 -44.750 -78.403  0.00  0.00    +0.000 Cl
ATOM     11  C   UNL     1     -57.422 -44.885 -77.325  0.00  0.00    +0.000 A 
ATOM     12  C   UNL     1     -57.345 -43.413 -77.151  0.00  0.00    +0.000 A 
ATOM     13  O   UNL     1     -58.304 -42.715 -77.471  0.00  0.00    +0.000 OA
ATOM     14  H   UNL     1     -54.528 -45.549 -75.861  0.00  0.00    +0.000 HD
ENDROOT
BRANCH   1  16
ATOM     15  C   UNL     1     -55.463 -40.406 -77.406  0.00  0.00    +0.000 C 
ATOM     16  C   UNL     1     -56.110 -41.278 -76.353  0.00  0.00    +0.000 C 
ATOM     17  O   UNL     1     -56.602 -40.745 -75.352  0.00  0.00    +0.000 OA
ENDBRANCH   1  16
BRANCH   2  18
ATOM     18  S   UNL     1     -53.697 -43.022 -75.207  0.00  0.00    +0.000 S 
ATOM     19  O   UNL     1     -53.085 -44.284 -74.663  0.00  0.00    +0.000 OA
BRANCH  18  20
ATOM     20  C   UNL     1     -52.597 -42.472 -76.560  0.00  0.00    +0.000 C 
BRANCH  20  21
ATOM     21  C   UNL     1     -51.640 -41.402 -76.132  0.00  0.00    +0.000 A 
ATOM     22  C   UNL     1     -51.664 -40.001 -76.362  0.00  0.00    +0.000 A 
ATOM     23  C   UNL     1     -50.548 -39.521 -75.725  0.00  0.00    +0.000 A 
ATOM     24  C   UNL     1     -49.923 -38.191 -75.584  0.00  0.00    +0.000 C 
ATOM     25  O   UNL     1     -49.912 -40.554 -75.111  0.00  0.00    +0.000 OA
ATOM     26  N   UNL     1     -50.596 -41.731 -75.356  0.00  0.00    +0.000 NA
ENDBRANCH  20  21
ENDBRANCH  18  20
ENDBRANCH   2  18
TORSDOF 4
