REMARK VINA RESULT:    -6.478      2.878      3.496
REMARK INTER + INTRA:          -8.734
REMARK INTER:                  -8.019
REMARK INTRA:                  -0.715
REMARK UNBOUND:                -0.741
REMARK  Name = 
REMARK  5 active torsions:
REMARK  status: ('A' for Active; 'I' for Inactive)
REMARK    1  A    between atoms: C_1  and  C_2
REMARK    2  A    between atoms: C_2  and  C_4
REMARK    3  A    between atoms: C_5  and  S_6
REMARK    4  A    between atoms: S_6  and  C_8
REMARK    5  A    between atoms: C_8  and  C_9
REMARK                            x       y       z     vdW  Elec       q    Type
REMARK                         _______ _______ _______ _____ _____    ______ ____
ROOT
ATOM      1  C   UNL     1     -54.720 -43.824 -77.105  0.00  0.00    +0.000 A 
ATOM      2  C   UNL     1     -54.158 -43.189 -78.156  0.00  0.00    +0.000 A 
ATOM      3  N   UNL     1     -54.597 -43.329 -79.462  0.00  0.00    +0.000 N 
ATOM      4  C   UNL     1     -55.494 -44.348 -79.825  0.00  0.00    +0.000 A 
ATOM      5  C   UNL     1     -55.757 -44.629 -81.177  0.00  0.00    +0.000 A 
ATOM      6 BR   UNL     1     -54.868 -43.684 -82.563  0.00  0.00    +0.000 Br
ATOM      7  C   UNL     1     -56.668 -45.620 -81.533  0.00  0.00    +0.000 A 
ATOM      8  C   UNL     1     -57.330 -46.336 -80.538  0.00  0.00    +0.000 A 
ATOM      9  C   UNL     1     -57.103 -46.052 -79.186  0.00  0.00    +0.000 A 
ATOM     10 CL   UNL     1     -57.935 -47.053 -78.050  0.00  0.00    +0.000 Cl
ATOM     11  C   UNL     1     -56.206 -45.035 -78.826  0.00  0.00    +0.000 A 
ATOM     12  C   UNL     1     -55.954 -44.614 -77.420  0.00  0.00    +0.000 A 
ATOM     13  O   UNL     1     -56.756 -44.873 -76.529  0.00  0.00    +0.000 OA
ATOM     14  H   UNL     1     -53.886 -43.121 -80.165  0.00  0.00    +0.000 HD
ENDROOT
BRANCH   1  16
ATOM     15  C   UNL     1     -54.670 -42.682 -74.766  0.00  0.00    +0.000 C 
ATOM     16  C   UNL     1     -54.205 -43.779 -75.696  0.00  0.00    +0.000 C 
ATOM     17  O   UNL     1     -53.411 -44.628 -75.275  0.00  0.00    +0.000 OA
ENDBRANCH   1  16
BRANCH   2  18
ATOM     18  S   UNL     1     -52.646 -42.213 -77.956  0.00  0.00    +0.000 S 
ATOM     19  O   UNL     1     -52.082 -42.144 -79.349  0.00  0.00    +0.000 OA
BRANCH  18  20
ATOM     20  C   UNL     1     -53.379 -40.564 -77.638  0.00  0.00    +0.000 C 
BRANCH  20  21
ATOM     21  C   UNL     1     -52.487 -39.466 -77.109  0.00  0.00    +0.000 A 
ATOM     22  C   UNL     1     -52.742 -38.106 -77.311  0.00  0.00    +0.000 A 
ATOM     23  C   UNL     1     -51.919 -37.134 -76.736  0.00  0.00    +0.000 A 
ATOM     24  C   UNL     1     -50.846 -37.505 -75.929  0.00  0.00    +0.000 A 
ATOM     25  C   UNL     1     -50.597 -38.854 -75.692  0.00  0.00    +0.000 A 
ATOM     26  C   UNL     1     -51.413 -39.826 -76.273  0.00  0.00    +0.000 A 
ENDBRANCH  20  21
ENDBRANCH  18  20
ENDBRANCH   2  18
TORSDOF 4
