REMARK VINA RESULT:    -5.792      9.685     12.208
REMARK INTER + INTRA:          -8.355
REMARK INTER:                  -6.895
REMARK INTRA:                  -1.460
REMARK UNBOUND:                -0.870
REMARK  Name = 
REMARK  8 active torsions:
REMARK  status: ('A' for Active; 'I' for Inactive)
REMARK    1  A    between atoms: C_1  and  C_2
REMARK    2  A    between atoms: C_4  and  C_5
REMARK    3  A    between atoms: C_5  and  S_6
REMARK    4  A    between atoms: S_6  and  C_8
REMARK    5  A    between atoms: C_20  and  C_21
REMARK    6  A    between atoms: C_21  and  C_23
REMARK    7  A    between atoms: C_23  and  C_24
REMARK    8  A    between atoms: C_23  and  C_25
REMARK                            x       y       z     vdW  Elec       q    Type
REMARK                         _______ _______ _______ _____ _____    ______ ____
ROOT
ATOM      1  C   UNL     1     -66.115 -43.639 -70.648  0.00  0.00    +0.000 A 
ATOM      2  N   UNL     1     -67.306 -43.645 -71.367  0.00  0.00    +0.000 N 
ATOM      3  C   UNL     1     -67.341 -43.974 -72.737  0.00  0.00    +0.000 A 
ATOM      4  C   UNL     1     -68.522 -44.392 -73.377  0.00  0.00    +0.000 A 
ATOM      5 BR   UNL     1     -70.113 -44.696 -72.389  0.00  0.00    +0.000 Br
ATOM      6  C   UNL     1     -68.546 -44.636 -74.753  0.00  0.00    +0.000 A 
ATOM      7  C   UNL     1     -67.389 -44.471 -75.508  0.00  0.00    +0.000 A 
ATOM      8  C   UNL     1     -66.196 -44.061 -74.886  0.00  0.00    +0.000 A 
ATOM      9 CL   UNL     1     -64.810 -43.960 -75.912  0.00  0.00    +0.000 Cl
ATOM     10  C   UNL     1     -66.173 -43.807 -73.499  0.00  0.00    +0.000 A 
ATOM     11  C   UNL     1     -64.975 -43.340 -72.755  0.00  0.00    +0.000 A 
ATOM     12  O   UNL     1     -64.078 -42.746 -73.346  0.00  0.00    +0.000 OA
ATOM     13  C   UNL     1     -64.904 -43.597 -71.253  0.00  0.00    +0.000 A 
ATOM     14  H   UNL     1     -68.126 -43.930 -70.814  0.00  0.00    +0.000 HD
ENDROOT
BRANCH   1  15
ATOM     15  S   UNL     1     -66.408 -43.909 -68.860  0.00  0.00    +0.000 S 
ATOM     16  O   UNL     1     -67.591 -44.839 -68.826  0.00  0.00    +0.000 OA
BRANCH  15  17
ATOM     17  C   UNL     1     -66.947 -42.269 -68.270  0.00  0.00    +0.000 C 
BRANCH  17  21
ATOM     18  C   UNL     1     -63.352 -38.619 -69.020  0.00  0.00    +0.000 C 
ATOM     19  C   UNL     1     -64.324 -39.655 -68.606  0.00  0.00    +0.000 A 
ATOM     20  C   UNL     1     -65.347 -40.334 -69.227  0.00  0.00    +0.000 A 
ATOM     21  C   UNL     1     -65.856 -41.224 -68.237  0.00  0.00    +0.000 A 
ATOM     22  N   UNL     1     -65.179 -41.060 -67.087  0.00  0.00    +0.000 NA
ATOM     23  O   UNL     1     -64.226 -40.088 -67.323  0.00  0.00    +0.000 OA
ENDBRANCH  17  21
ENDBRANCH  15  17
ENDBRANCH   1  15
BRANCH  13  24
ATOM     24  C   UNL     1     -63.526 -43.805 -70.664  0.00  0.00    +0.000 C 
ATOM     25  O   UNL     1     -63.036 -44.933 -70.619  0.00  0.00    +0.000 OA
BRANCH  24  26
ATOM     26  C   UNL     1     -62.759 -42.629 -70.058  0.00  0.00    +0.000 C 
ATOM     27  C   UNL     1     -62.381 -42.889 -68.603  0.00  0.00    +0.000 C 
ATOM     28  C   UNL     1     -61.513 -42.277 -70.876  0.00  0.00    +0.000 C 
ENDBRANCH  24  26
ENDBRANCH  13  24
TORSDOF 5
