=
 OpenBabel09152517423D

 28 30  0  0  0  0  0  0  0  0999 V2000
  -55.5870  -41.4380  -63.5640 C   0  0  0  0  0  0  0  0  0  0  0  0
  -54.2590  -41.0950  -63.8000 N   0  0  0  0  0  0  0  0  0  0  0  0
  -53.2430  -42.0700  -63.8550 C   0  0  0  0  0  0  0  0  0  0  0  0
  -52.0080  -41.8290  -64.4860 C   0  0  0  0  0  0  0  0  0  0  0  0
  -51.7000  -40.2240  -65.4480 Br  0  0  0  0  0  0  0  0  0  0  0  0
  -50.9890  -42.7850  -64.4590 C   0  0  0  0  0  3  0  0  0  0  0  0
  -51.1900  -43.9970  -63.8040 C   0  0  0  0  0  3  0  0  0  0  0  0
  -52.4200  -44.2600  -63.1730 C   0  0  0  0  0  0  0  0  0  0  0  0
  -52.5770  -45.8230  -62.4560 Cl  0  0  0  0  0  0  0  0  0  0  0  0
  -53.4460  -43.2920  -63.1950 C   0  0  0  0  0  0  0  0  0  0  0  0
  -54.7650  -43.4600  -62.5320 C   0  0  0  0  0  0  0  0  0  0  0  0
  -54.8850  -44.2370  -61.5890 O   0  0  0  0  0  0  0  0  0  0  0  0
  -55.9440  -42.6330  -63.0360 C   0  0  0  0  0  0  0  0  0  0  0  0
  -54.1420  -40.2850  -64.4230 H   0  0  0  0  0  0  0  0  0  0  0  0
  -56.7360  -40.1850  -64.2480 S   0  0  2  0  0  0  0  0  0  0  0  0
  -57.3900  -39.5930  -63.0290 O   0  0  0  0  0  0  0  0  0  0  0  0
  -57.9730  -41.1910  -65.1360 C   0  0  0  0  0  2  0  0  0  0  0  0
  -55.5590  -42.7810  -69.4310 C   0  0  0  0  0  1  0  0  0  0  0  0
  -56.4180  -42.4140  -68.2840 C   0  0  0  0  0  0  0  0  0  0  0  0
  -56.2050  -41.8480  -67.0480 C   0  0  0  0  0  3  0  0  0  0  0  0
  -57.4970  -41.7500  -66.4560 C   0  0  0  0  0  0  0  0  0  0  0  0
  -58.4200  -42.2540  -67.2940 N   0  0  0  0  0  0  0  0  0  0  0  0
  -57.7460  -42.6610  -68.4290 O   0  0  0  0  0  0  0  0  0  0  0  0
  -57.3150  -43.2620  -62.9180 C   0  0  0  0  0  0  0  0  0  0  0  0
  -57.6450  -44.1740  -63.6750 O   0  0  0  0  0  0  0  0  0  0  0  0
  -58.3260  -42.7270  -61.9040 C   0  0  0  0  0  3  0  0  0  0  0  0
  -59.4540  -43.7230  -61.6490 C   0  0  0  0  0  1  0  0  0  0  0  0
  -57.6580  -42.3320  -60.5840 C   0  0  0  0  0  1  0  0  0  0  0  0
  1 13  2  0  0  0  0
  2  1  1  0  0  0  0
  3  2  1  0  0  0  0
  3 10  1  0  0  0  0
  4  6  1  0  0  0  0
  4  3  2  0  0  0  0
  5  4  1  0  0  0  0
  6  7  2  0  0  0  0
  7  8  1  0  0  0  0
  8  9  1  0  0  0  0
 10  8  2  0  0  0  0
 10 11  1  0  0  0  0
 11 12  2  0  0  0  0
 13 24  1  0  0  0  0
 13 11  1  0  0  0  0
 14  2  1  0  0  0  0
 15  1  1  0  0  0  0
 15 16  2  1  0  0  0
 17 15  1  0  0  0  0
 18 19  1  0  0  0  0
 19 20  2  0  0  0  0
 20 21  1  0  0  0  0
 21 17  1  0  0  0  0
 22 21  2  0  0  0  0
 23 19  1  0  0  0  0
 23 22  1  0  0  0  0
 24 26  1  0  0  0  0
 25 24  2  0  0  0  0
 26 27  1  0  0  0  0
 26 28  1  0  0  0  0
M  END
>  <MODEL>
1

>  <REMARK>
 VINA RESULT:    -7.836      0.000      0.000
 INTER + INTRA:         -10.886
 INTER:                 -10.126
 INTRA:                  -0.760
 UNBOUND:                -0.760
  Name = 
  8 active torsions:
  status: ('A' for Active; 'I' for Inactive)
    1  A    between atoms: C_1  and  C_2
    2  A    between atoms: C_4  and  C_5
    3  A    between atoms: C_5  and  S_6
    4  A    between atoms: S_6  and  C_8
    5  A    between atoms: C_20  and  C_21
    6  A    between atoms: C_21  and  C_23
    7  A    between atoms: C_23  and  C_24
    8  A    between atoms: C_23  and  C_25
                            x       y       z     vdW  Elec       q    Type
                         _______ _______ _______ _____ _____    ______ ____

>  <TORSDO>
F 5

$$$$
