REMARK VINA RESULT:    -6.070      4.070      6.075
REMARK INTER + INTRA:          -9.191
REMARK INTER:                  -8.303
REMARK INTRA:                  -0.888
REMARK UNBOUND:                -1.347
REMARK  Name = 
REMARK  6 active torsions:
REMARK  status: ('A' for Active; 'I' for Inactive)
REMARK    1  A    between atoms: C_1  and  C_2
REMARK    2  A    between atoms: C_2  and  C_4
REMARK    3  A    between atoms: C_5  and  S_6
REMARK    4  A    between atoms: S_6  and  C_8
REMARK    5  A    between atoms: C_8  and  C_9
REMARK    6  A    between atoms: C_13  and  C_14
REMARK                            x       y       z     vdW  Elec       q    Type
REMARK                         _______ _______ _______ _____ _____    ______ ____
ROOT
ATOM      1  C   UNL     1     -55.659 -42.169 -63.200  0.00  0.00    +0.000 A 
ATOM      2  C   UNL     1     -56.418 -41.368 -62.417  0.00  0.00    +0.000 A 
ATOM      3  N   UNL     1     -56.434 -41.458 -61.037  0.00  0.00    +0.000 N 
ATOM      4  C   UNL     1     -55.769 -42.477 -60.330  0.00  0.00    +0.000 A 
ATOM      5  C   UNL     1     -55.813 -42.534 -58.925  0.00  0.00    +0.000 A 
ATOM      6 BR   UNL     1     -56.842 -41.288 -57.927  0.00  0.00    +0.000 Br
ATOM      7  C   UNL     1     -55.100 -43.504 -58.220  0.00  0.00    +0.000 A 
ATOM      8  C   UNL     1     -54.330 -44.434 -58.912  0.00  0.00    +0.000 A 
ATOM      9  C   UNL     1     -54.256 -44.390 -60.307  0.00  0.00    +0.000 A 
ATOM     10 CL   UNL     1     -53.269 -45.618 -61.026  0.00  0.00    +0.000 Cl
ATOM     11  C   UNL     1     -54.956 -43.394 -61.020  0.00  0.00    +0.000 A 
ATOM     12  C   UNL     1     -54.894 -43.258 -62.498  0.00  0.00    +0.000 A 
ATOM     13  O   UNL     1     -54.238 -44.059 -63.153  0.00  0.00    +0.000 OA
ATOM     14  H   UNL     1     -57.248 -41.053 -60.572  0.00  0.00    +0.000 HD
ENDROOT
BRANCH   1  16
ATOM     15  C   UNL     1     -54.482 -41.146 -65.282  0.00  0.00    +0.000 C 
ATOM     16  C   UNL     1     -55.547 -42.054 -64.701  0.00  0.00    +0.000 C 
ATOM     17  O   UNL     1     -56.311 -42.645 -65.461  0.00  0.00    +0.000 OA
ENDBRANCH   1  16
BRANCH   2  18
ATOM     18  S   UNL     1     -57.629 -40.211 -63.153  0.00  0.00    +0.000 S 
ATOM     19  O   UNL     1     -58.952 -40.876 -62.886  0.00  0.00    +0.000 OA
BRANCH  18  20
ATOM     20  C   UNL     1     -57.518 -38.814 -61.973  0.00  0.00    +0.000 C 
BRANCH  20  21
ATOM     21  C   UNL     1     -56.803 -37.601 -62.553  0.00  0.00    +0.000 A 
ATOM     22  C   UNL     1     -55.671 -37.764 -63.366  0.00  0.00    +0.000 A 
ATOM     23  C   UNL     1     -55.004 -36.652 -63.893  0.00  0.00    +0.000 A 
ATOM     24  C   UNL     1     -55.448 -35.361 -63.608  0.00  0.00    +0.000 A 
ATOM     25  C   UNL     1     -56.557 -35.174 -62.787  0.00  0.00    +0.000 A 
ATOM     26  C   UNL     1     -57.229 -36.291 -62.255  0.00  0.00    +0.000 A 
BRANCH  25  27
ATOM     27  C   UNL     1     -57.009 -33.844 -62.474  0.00  0.00    +0.000 C 
ATOM     28  N   UNL     1     -57.386 -32.775 -62.206  0.00  0.00    +0.000 NA
ENDBRANCH  25  27
ENDBRANCH  20  21
ENDBRANCH  18  20
ENDBRANCH   2  18
TORSDOF 5
