REMARK VINA RESULT:    -6.518     13.432     14.729
REMARK INTER + INTRA:          -8.973
REMARK INTER:                  -8.308
REMARK INTRA:                  -0.665
REMARK UNBOUND:                -0.930
REMARK  Name = 
REMARK  6 active torsions:
REMARK  status: ('A' for Active; 'I' for Inactive)
REMARK    1  A    between atoms: C_1  and  C_2
REMARK    2  A    between atoms: C_2  and  C_4
REMARK    3  A    between atoms: C_5  and  S_6
REMARK    4  A    between atoms: S_6  and  C_8
REMARK    5  A    between atoms: C_8  and  C_9
REMARK    6  A    between atoms: C_11  and  C_12
REMARK                            x       y       z     vdW  Elec       q    Type
REMARK                         _______ _______ _______ _____ _____    ______ ____
ROOT
ATOM      1  C   UNL     1     -53.841 -41.285 -78.206  0.00  0.00    +0.000 A 
ATOM      2  C   UNL     1     -54.740 -42.296 -78.189  0.00  0.00    +0.000 A 
ATOM      3  N   UNL     1     -54.777 -43.269 -77.204  0.00  0.00    +0.000 N 
ATOM      4  C   UNL     1     -53.694 -43.456 -76.323  0.00  0.00    +0.000 A 
ATOM      5  C   UNL     1     -53.612 -44.596 -75.507  0.00  0.00    +0.000 A 
ATOM      6 BR   UNL     1     -54.931 -45.959 -75.597  0.00  0.00    +0.000 Br
ATOM      7  C   UNL     1     -52.549 -44.763 -74.623  0.00  0.00    +0.000 A 
ATOM      8  C   UNL     1     -51.557 -43.785 -74.543  0.00  0.00    +0.000 A 
ATOM      9  C   UNL     1     -51.639 -42.621 -75.324  0.00  0.00    +0.000 A 
ATOM     10 CL   UNL     1     -50.321 -41.518 -75.190  0.00  0.00    +0.000 Cl
ATOM     11  C   UNL     1     -52.727 -42.446 -76.192  0.00  0.00    +0.000 A 
ATOM     12  C   UNL     1     -52.947 -41.215 -77.002  0.00  0.00    +0.000 A 
ATOM     13  O   UNL     1     -52.442 -40.147 -76.675  0.00  0.00    +0.000 OA
ATOM     14  H   UNL     1     -55.223 -44.141 -77.501  0.00  0.00    +0.000 HD
ENDROOT
BRANCH   1  16
ATOM     15  C   UNL     1     -54.071 -38.822 -79.016  0.00  0.00    +0.000 C 
ATOM     16  C   UNL     1     -53.698 -40.265 -79.294  0.00  0.00    +0.000 C 
ATOM     17  O   UNL     1     -53.274 -40.580 -80.405  0.00  0.00    +0.000 OA
ENDBRANCH   1  16
BRANCH   2  18
ATOM     18  S   UNL     1     -55.906 -42.567 -79.565  0.00  0.00    +0.000 S 
ATOM     19  O   UNL     1     -56.416 -43.961 -79.314  0.00  0.00    +0.000 OA
BRANCH  18  20
ATOM     20  C   UNL     1     -57.224 -41.428 -78.991  0.00  0.00    +0.000 C 
BRANCH  20  21
ATOM     21  C   UNL     1     -57.429 -41.418 -77.512  0.00  0.00    +0.000 A 
ATOM     22  C   UNL     1     -57.262 -40.383 -76.556  0.00  0.00    +0.000 A 
ATOM     23  C   UNL     1     -57.689 -40.928 -75.370  0.00  0.00    +0.000 A 
ATOM     24  C   UNL     1     -57.803 -40.446 -73.980  0.00  0.00    +0.000 C 
ATOM     25  O   UNL     1     -58.100 -42.204 -75.593  0.00  0.00    +0.000 OA
ATOM     26  N   UNL     1     -57.946 -42.513 -76.928  0.00  0.00    +0.000 NA
ENDBRANCH  20  21
ENDBRANCH  18  20
ENDBRANCH   2  18
TORSDOF 4
