REMARK VINA RESULT:    -6.833      0.000      0.000
REMARK INTER + INTRA:          -9.434
REMARK INTER:                  -8.431
REMARK INTRA:                  -1.003
REMARK UNBOUND:                -1.003
REMARK  Name = 
REMARK  6 active torsions:
REMARK  status: ('A' for Active; 'I' for Inactive)
REMARK    1  A    between atoms: C_1  and  C_2
REMARK    2  A    between atoms: C_2  and  C_4
REMARK    3  A    between atoms: C_5  and  S_6
REMARK    4  A    between atoms: S_6  and  C_8
REMARK    5  A    between atoms: C_8  and  C_9
REMARK    6  A    between atoms: C_11  and  C_12
REMARK                            x       y       z     vdW  Elec       q    Type
REMARK                         _______ _______ _______ _____ _____    ______ ____
ROOT
ATOM      1  C   UNL     1     -55.998 -42.495 -62.800  0.00  0.00    +0.000 A 
ATOM      2  C   UNL     1     -55.712 -41.349 -63.459  0.00  0.00    +0.000 A 
ATOM      3  N   UNL     1     -54.498 -41.116 -64.076  0.00  0.00    +0.000 N 
ATOM      4  C   UNL     1     -53.392 -41.974 -63.933  0.00  0.00    +0.000 A 
ATOM      5  C   UNL     1     -52.150 -41.661 -64.513  0.00  0.00    +0.000 A 
ATOM      6 BR   UNL     1     -51.894 -40.023 -65.442  0.00  0.00    +0.000 Br
ATOM      7  C   UNL     1     -51.069 -42.535 -64.417  0.00  0.00    +0.000 A 
ATOM      8  C   UNL     1     -51.219 -43.741 -63.746  0.00  0.00    +0.000 A 
ATOM      9  C   UNL     1     -52.453 -44.091 -63.178  0.00  0.00    +0.000 A 
ATOM     10 CL   UNL     1     -52.477 -45.619 -62.368  0.00  0.00    +0.000 Cl
ATOM     11  C   UNL     1     -53.549 -43.210 -63.282  0.00  0.00    +0.000 A 
ATOM     12  C   UNL     1     -54.883 -43.505 -62.700  0.00  0.00    +0.000 A 
ATOM     13  O   UNL     1     -55.069 -44.551 -62.102  0.00  0.00    +0.000 OA
ATOM     14  H   UNL     1     -54.264 -40.134 -64.228  0.00  0.00    +0.000 HD
ENDROOT
BRANCH   1  16
ATOM     15  C   UNL     1     -58.417 -43.473 -62.926  0.00  0.00    +0.000 C 
ATOM     16  C   UNL     1     -57.324 -42.795 -62.132  0.00  0.00    +0.000 C 
ATOM     17  O   UNL     1     -57.538 -42.494 -60.957  0.00  0.00    +0.000 OA
ENDBRANCH   1  16
BRANCH   2  18
ATOM     18  S   UNL     1     -56.853 -39.927 -63.436  0.00  0.00    +0.000 S 
ATOM     19  O   UNL     1     -56.658 -39.343 -62.062  0.00  0.00    +0.000 OA
BRANCH  18  20
ATOM     20  C   UNL     1     -55.976 -38.810 -64.588  0.00  0.00    +0.000 C 
BRANCH  20  21
ATOM     21  C   UNL     1     -55.305 -37.671 -63.887  0.00  0.00    +0.000 A 
ATOM     22  C   UNL     1     -55.781 -36.366 -63.595  0.00  0.00    +0.000 A 
ATOM     23  C   UNL     1     -54.746 -35.758 -62.924  0.00  0.00    +0.000 A 
ATOM     24  C   UNL     1     -54.519 -34.410 -62.371  0.00  0.00    +0.000 C 
ATOM     25  O   UNL     1     -53.730 -36.649 -62.784  0.00  0.00    +0.000 OA
ATOM     26  N   UNL     1     -54.077 -37.849 -63.378  0.00  0.00    +0.000 NA
ENDBRANCH  20  21
ENDBRANCH  18  20
ENDBRANCH   2  18
TORSDOF 4
