REMARK VINA RESULT:    -5.499      4.617      5.497
REMARK INTER + INTRA:          -7.521
REMARK INTER:                  -6.682
REMARK INTRA:                  -0.839
REMARK UNBOUND:                -0.736
REMARK  Name = 
REMARK  6 active torsions:
REMARK  status: ('A' for Active; 'I' for Inactive)
REMARK    1  A    between atoms: C_1  and  C_2
REMARK    2  A    between atoms: C_2  and  C_4
REMARK    3  A    between atoms: C_5  and  S_6
REMARK    4  A    between atoms: S_6  and  C_8
REMARK    5  A    between atoms: C_8  and  C_9
REMARK    6  A    between atoms: C_11  and  C_12
REMARK                            x       y       z     vdW  Elec       q    Type
REMARK                         _______ _______ _______ _____ _____    ______ ____
ROOT
ATOM      1  C   UNL     1     -57.443 -43.445 -77.628  0.00  0.00    +0.000 A 
ATOM      2  C   UNL     1     -58.059 -44.600 -77.964  0.00  0.00    +0.000 A 
ATOM      3  N   UNL     1     -57.634 -45.840 -77.520  0.00  0.00    +0.000 N 
ATOM      4  C   UNL     1     -56.373 -46.019 -76.923  0.00  0.00    +0.000 A 
ATOM      5  C   UNL     1     -55.855 -47.305 -76.693  0.00  0.00    +0.000 A 
ATOM      6 BR   UNL     1     -56.808 -48.853 -77.243  0.00  0.00    +0.000 Br
ATOM      7  C   UNL     1     -54.621 -47.477 -76.072  0.00  0.00    +0.000 A 
ATOM      8  C   UNL     1     -53.892 -46.360 -75.668  0.00  0.00    +0.000 A 
ATOM      9  C   UNL     1     -54.403 -45.070 -75.862  0.00  0.00    +0.000 A 
ATOM     10 CL   UNL     1     -53.377 -43.766 -75.381  0.00  0.00    +0.000 Cl
ATOM     11  C   UNL     1     -55.659 -44.899 -76.464  0.00  0.00    +0.000 A 
ATOM     12  C   UNL     1     -56.317 -43.576 -76.640  0.00  0.00    +0.000 A 
ATOM     13  O   UNL     1     -55.984 -42.612 -75.961  0.00  0.00    +0.000 OA
ATOM     14  H   UNL     1     -57.923 -46.617 -78.120  0.00  0.00    +0.000 HD
ENDROOT
BRANCH   1  16
ATOM     15  C   UNL     1     -58.866 -41.268 -77.436  0.00  0.00    +0.000 C 
ATOM     16  C   UNL     1     -57.803 -42.083 -78.151  0.00  0.00    +0.000 C 
ATOM     17  O   UNL     1     -57.252 -41.622 -79.147  0.00  0.00    +0.000 OA
ENDBRANCH   1  16
BRANCH   2  18
ATOM     18  S   UNL     1     -59.435 -44.647 -79.161  0.00  0.00    +0.000 S 
ATOM     19  O   UNL     1     -59.105 -45.838 -80.019  0.00  0.00    +0.000 OA
BRANCH  18  20
ATOM     20  C   UNL     1     -60.754 -45.191 -78.006  0.00  0.00    +0.000 C 
BRANCH  20  21
ATOM     21  C   UNL     1     -61.160 -46.623 -78.154  0.00  0.00    +0.000 A 
ATOM     22  C   UNL     1     -60.598 -47.809 -77.613  0.00  0.00    +0.000 A 
ATOM     23  C   UNL     1     -61.456 -48.810 -78.002  0.00  0.00    +0.000 A 
ATOM     24  C   UNL     1     -61.510 -50.270 -77.796  0.00  0.00    +0.000 C 
ATOM     25  O   UNL     1     -62.468 -48.269 -78.727  0.00  0.00    +0.000 OA
ATOM     26  N   UNL     1     -62.291 -46.902 -78.821  0.00  0.00    +0.000 NA
ENDBRANCH  20  21
ENDBRANCH  18  20
ENDBRANCH   2  18
TORSDOF 4
