REMARK VINA RESULT:    -5.464     13.379     15.174
REMARK INTER + INTRA:          -7.912
REMARK INTER:                  -6.949
REMARK INTRA:                  -0.963
REMARK UNBOUND:                -0.850
REMARK  Name = 
REMARK  6 active torsions:
REMARK  status: ('A' for Active; 'I' for Inactive)
REMARK    1  A    between atoms: C_1  and  C_2
REMARK    2  A    between atoms: C_4  and  C_5
REMARK    3  A    between atoms: C_5  and  S_6
REMARK    4  A    between atoms: S_6  and  C_8
REMARK    5  A    between atoms: C_20  and  C_21
REMARK    6  A    between atoms: C_21  and  C_23
REMARK                            x       y       z     vdW  Elec       q    Type
REMARK                         _______ _______ _______ _____ _____    ______ ____
ROOT
ATOM      1  C   UNL     1     -58.390 -37.740 -61.596  0.00  0.00    +0.000 A 
ATOM      2  N   UNL     1     -57.159 -37.117 -61.876  0.00  0.00    +0.000 N 
ATOM      3  C   UNL     1     -56.198 -37.753 -62.708  0.00  0.00    +0.000 A 
ATOM      4  C   UNL     1     -55.149 -37.059 -63.339  0.00  0.00    +0.000 A 
ATOM      5 BR   UNL     1     -55.044 -35.167 -63.267  0.00  0.00    +0.000 Br
ATOM      6  C   UNL     1     -54.160 -37.741 -64.062  0.00  0.00    +0.000 A 
ATOM      7  C   UNL     1     -54.227 -39.134 -64.184  0.00  0.00    +0.000 A 
ATOM      8  C   UNL     1     -55.259 -39.843 -63.569  0.00  0.00    +0.000 A 
ATOM      9 CL   UNL     1     -55.293 -41.548 -63.839  0.00  0.00    +0.000 Cl
ATOM     10  C   UNL     1     -56.223 -39.153 -62.818  0.00  0.00    +0.000 A 
ATOM     11  C   UNL     1     -57.299 -39.823 -62.063  0.00  0.00    +0.000 A 
ATOM     12  O   UNL     1     -57.152 -40.942 -61.588  0.00  0.00    +0.000 OA
ATOM     13  C   UNL     1     -58.568 -39.061 -61.820  0.00  0.00    +0.000 A 
ATOM     14  H   UNL     1     -57.266 -36.110 -62.061  0.00  0.00    +0.000 HD
ENDROOT
BRANCH   1  15
ATOM     15  S   UNL     1     -59.738 -36.550 -61.368  0.00  0.00    +0.000 S 
ATOM     16  O   UNL     1     -60.478 -36.576 -62.677  0.00  0.00    +0.000 OA
BRANCH  15  17
ATOM     17  C   UNL     1     -59.046 -34.882 -61.167  0.00  0.00    +0.000 C 
BRANCH  17  21
ATOM     18  C   UNL     1     -59.312 -31.332 -64.847  0.00  0.00    +0.000 C 
ATOM     19  C   UNL     1     -59.443 -32.317 -63.758  0.00  0.00    +0.000 A 
ATOM     20  C   UNL     1     -58.604 -33.244 -63.186  0.00  0.00    +0.000 A 
ATOM     21  C   UNL     1     -59.351 -33.788 -62.118  0.00  0.00    +0.000 A 
ATOM     22  N   UNL     1     -60.591 -33.268 -62.096  0.00  0.00    +0.000 NA
ATOM     23  O   UNL     1     -60.642 -32.348 -63.123  0.00  0.00    +0.000 OA
ENDBRANCH  17  21
ENDBRANCH  15  17
ENDBRANCH   1  15
BRANCH  13  24
ATOM     24  C   UNL     1     -59.802 -39.867 -62.039  0.00  0.00    +0.000 C 
ATOM     25  O   UNL     1     -60.045 -40.343 -63.135  0.00  0.00    +0.000 OA
BRANCH  24  26
ATOM     26  C   UNL     1     -60.700 -40.118 -60.896  0.00  0.00    +0.000 C 
ATOM     27  C   UNL     1     -60.128 -40.182 -59.504  0.00  0.00    +0.000 C 
ATOM     28  C   UNL     1     -60.662 -41.427 -60.143  0.00  0.00    +0.000 C 
ENDBRANCH  24  26
ENDBRANCH  13  24
TORSDOF 5
