=
 OpenBabel09162515243D

 26 28  0  0  0  0  0  0  0  0999 V2000
  -56.1240  -42.7720  -76.5420 C   0  0  0  0  0  0  0  0  0  0  0  0
  -55.1260  -43.6150  -76.1800 C   0  0  0  0  0  0  0  0  0  0  0  0
  -55.1690  -44.9790  -76.4100 N   0  0  0  0  0  0  0  0  0  0  0  0
  -56.3150  -45.6350  -76.8970 C   0  0  0  0  0  0  0  0  0  0  0  0
  -56.3410  -47.0310  -77.0530 C   0  0  0  0  0  0  0  0  0  0  0  0
  -54.8670  -48.1010  -76.5110 Br  0  0  0  0  0  0  0  0  0  0  0  0
  -57.4510  -47.6770  -77.5980 C   0  0  0  0  0  3  0  0  0  0  0  0
  -58.5520  -46.9260  -78.0040 C   0  0  0  0  0  3  0  0  0  0  0  0
  -58.5490  -45.5370  -77.8680 C   0  0  0  0  0  0  0  0  0  0  0  0
  -59.9950  -44.7500  -78.4030 Cl  0  0  0  0  0  0  0  0  0  0  0  0
  -57.4220  -44.8850  -77.3250 C   0  0  0  0  0  0  0  0  0  0  0  0
  -57.3450  -43.4130  -77.1510 C   0  0  0  0  0  0  0  0  0  0  0  0
  -58.3040  -42.7150  -77.4710 O   0  0  0  0  0  0  0  0  0  0  0  0
  -54.5280  -45.5490  -75.8610 H   0  0  0  0  0  0  0  0  0  0  0  0
  -55.4630  -40.4060  -77.4060 C   0  0  0  0  0  1  0  0  0  0  0  0
  -56.1100  -41.2780  -76.3530 C   0  0  0  0  0  0  0  0  0  0  0  0
  -56.6020  -40.7450  -75.3520 O   0  0  0  0  0  0  0  0  0  0  0  0
  -53.6970  -43.0220  -75.2070 S   0  0  1  0  0  0  0  0  0  0  0  0
  -53.0850  -44.2840  -74.6630 O   0  0  0  0  0  0  0  0  0  0  0  0
  -52.5970  -42.4720  -76.5600 C   0  0  0  0  0  2  0  0  0  0  0  0
  -51.6400  -41.4020  -76.1320 C   0  0  0  0  0  0  0  0  0  0  0  0
  -51.6640  -40.0010  -76.3620 C   0  0  0  0  0  3  0  0  0  0  0  0
  -50.5480  -39.5210  -75.7250 C   0  0  0  0  0  0  0  0  0  0  0  0
  -49.9230  -38.1910  -75.5840 C   0  0  0  0  0  1  0  0  0  0  0  0
  -49.9120  -40.5540  -75.1110 O   0  0  0  0  0  0  0  0  0  0  0  0
  -50.5960  -41.7310  -75.3560 N   0  0  0  0  0  0  0  0  0  0  0  0
  1 16  1  0  0  0  0
  1  2  2  0  0  0  0
  2 18  1  0  0  0  0
  3  2  1  0  0  0  0
  3 14  1  0  0  0  0
  4  3  1  0  0  0  0
  5  4  1  0  0  0  0
  5  6  1  0  0  0  0
  7  5  2  0  0  0  0
  8  9  2  0  0  0  0
  8  7  1  0  0  0  0
  9 11  1  0  0  0  0
 10  9  1  0  0  0  0
 11 12  1  0  0  0  0
 11  4  2  0  0  0  0
 12  1  1  0  0  0  0
 13 12  2  0  0  0  0
 15 16  1  0  0  0  0
 16 17  2  0  0  0  0
 18 19  2  6  0  0  0
 20 21  1  0  0  0  0
 20 18  1  0  0  0  0
 21 26  2  0  0  0  0
 22 21  1  0  0  0  0
 22 23  2  0  0  0  0
 23 24  1  0  0  0  0
 23 25  1  0  0  0  0
 26 25  1  0  0  0  0
M  END
>  <MODEL>
1

>  <REMARK>
 VINA RESULT:    -6.821      0.000      0.000
 INTER + INTRA:          -9.136
 INTER:                  -8.417
 INTRA:                  -0.720
 UNBOUND:                -0.720
  Name = 
  6 active torsions:
  status: ('A' for Active; 'I' for Inactive)
    1  A    between atoms: C_1  and  C_2
    2  A    between atoms: C_2  and  C_4
    3  A    between atoms: C_5  and  S_6
    4  A    between atoms: S_6  and  C_8
    5  A    between atoms: C_8  and  C_9
    6  A    between atoms: C_11  and  C_12
                            x       y       z     vdW  Elec       q    Type
                         _______ _______ _______ _____ _____    ______ ____

>  <TORSDO>
F 4

$$$$
