REMARK VINA RESULT:    -5.262      9.811     13.021
REMARK INTER + INTRA:          -7.674
REMARK INTER:                  -6.546
REMARK INTRA:                  -1.128
REMARK UNBOUND:                -0.873
REMARK  Name = 
REMARK  6 active torsions:
REMARK  status: ('A' for Active; 'I' for Inactive)
REMARK    1  A    between atoms: C_1  and  C_2
REMARK    2  A    between atoms: C_4  and  C_5
REMARK    3  A    between atoms: C_5  and  S_6
REMARK    4  A    between atoms: S_6  and  C_8
REMARK    5  A    between atoms: C_20  and  C_21
REMARK    6  A    between atoms: C_21  and  C_23
REMARK                            x       y       z     vdW  Elec       q    Type
REMARK                         _______ _______ _______ _____ _____    ______ ____
ROOT
ATOM      1  C   UNL     1     -66.234 -41.319 -70.609  0.00  0.00    +0.000 A 
ATOM      2  N   UNL     1     -65.131 -41.538 -71.457  0.00  0.00    +0.000 N 
ATOM      3  C   UNL     1     -63.837 -41.771 -70.915  0.00  0.00    +0.000 A 
ATOM      4  C   UNL     1     -62.794 -42.370 -71.646  0.00  0.00    +0.000 A 
ATOM      5 BR   UNL     1     -63.097 -43.084 -73.377  0.00  0.00    +0.000 Br
ATOM      6  C   UNL     1     -61.503 -42.480 -71.111  0.00  0.00    +0.000 A 
ATOM      7  C   UNL     1     -61.248 -42.012 -69.817  0.00  0.00    +0.000 A 
ATOM      8  C   UNL     1     -62.266 -41.416 -69.072  0.00  0.00    +0.000 A 
ATOM      9 CL   UNL     1     -61.868 -40.939 -67.461  0.00  0.00    +0.000 Cl
ATOM     10  C   UNL     1     -63.545 -41.280 -69.633  0.00  0.00    +0.000 A 
ATOM     11  C   UNL     1     -64.659 -40.588 -68.956  0.00  0.00    +0.000 A 
ATOM     12  O   UNL     1     -64.466 -39.664 -68.176  0.00  0.00    +0.000 OA
ATOM     13  C   UNL     1     -66.059 -40.997 -69.309  0.00  0.00    +0.000 A 
ATOM     14  H   UNL     1     -65.364 -42.152 -72.249  0.00  0.00    +0.000 HD
ENDROOT
BRANCH   1  15
ATOM     15  S   UNL     1     -67.785 -41.942 -71.310  0.00  0.00    +0.000 S 
ATOM     16  O   UNL     1     -67.356 -42.721 -72.523  0.00  0.00    +0.000 OA
BRANCH  15  17
ATOM     17  C   UNL     1     -68.792 -40.545 -71.890  0.00  0.00    +0.000 C 
BRANCH  17  21
ATOM     18  C   UNL     1     -70.626 -36.746 -68.988  0.00  0.00    +0.000 C 
ATOM     19  C   UNL     1     -70.272 -37.947 -69.766  0.00  0.00    +0.000 A 
ATOM     20  C   UNL     1     -69.267 -38.268 -70.647  0.00  0.00    +0.000 A 
ATOM     21  C   UNL     1     -69.479 -39.631 -70.949  0.00  0.00    +0.000 A 
ATOM     22  N   UNL     1     -70.590 -40.081 -70.339  0.00  0.00    +0.000 NA
ATOM     23  O   UNL     1     -71.080 -39.025 -69.600  0.00  0.00    +0.000 OA
ENDBRANCH  17  21
ENDBRANCH  15  17
ENDBRANCH   1  15
BRANCH  13  24
ATOM     24  C   UNL     1     -66.958 -41.138 -68.128  0.00  0.00    +0.000 C 
ATOM     25  O   UNL     1     -67.876 -40.356 -67.952  0.00  0.00    +0.000 OA
BRANCH  24  26
ATOM     26  C   UNL     1     -66.746 -42.268 -67.204  0.00  0.00    +0.000 C 
ATOM     27  C   UNL     1     -66.312 -43.603 -67.753  0.00  0.00    +0.000 C 
ATOM     28  C   UNL     1     -67.689 -43.448 -67.182  0.00  0.00    +0.000 C 
ENDBRANCH  24  26
ENDBRANCH  13  24
TORSDOF 5
