REMARK VINA RESULT:    -5.768     11.282     14.490
REMARK INTER + INTRA:          -8.581
REMARK INTER:                  -7.425
REMARK INTRA:                  -1.156
REMARK UNBOUND:                -1.127
REMARK  Name = 
REMARK  8 active torsions:
REMARK  status: ('A' for Active; 'I' for Inactive)
REMARK    1  A    between atoms: C_1  and  C_2
REMARK    2  A    between atoms: C_4  and  C_5
REMARK    3  A    between atoms: C_5  and  S_6
REMARK    4  A    between atoms: S_6  and  C_8
REMARK    5  A    between atoms: C_20  and  C_21
REMARK    6  A    between atoms: C_21  and  C_23
REMARK    7  A    between atoms: C_23  and  C_24
REMARK    8  A    between atoms: C_23  and  C_25
REMARK                            x       y       z     vdW  Elec       q    Type
REMARK                         _______ _______ _______ _____ _____    ______ ____
ROOT
ATOM      1  C   UNL     1     -57.187 -43.532 -77.932  0.00  0.00    +0.000 A 
ATOM      2  N   UNL     1     -56.260 -43.722 -76.912  0.00  0.00    +0.000 N 
ATOM      3  C   UNL     1     -55.704 -44.989 -76.646  0.00  0.00    +0.000 A 
ATOM      4  C   UNL     1     -54.497 -45.144 -75.937  0.00  0.00    +0.000 A 
ATOM      5 BR   UNL     1     -53.459 -43.637 -75.437  0.00  0.00    +0.000 Br
ATOM      6  C   UNL     1     -54.009 -46.414 -75.619  0.00  0.00    +0.000 A 
ATOM      7  C   UNL     1     -54.715 -47.548 -76.009  0.00  0.00    +0.000 A 
ATOM      8  C   UNL     1     -55.919 -47.415 -76.724  0.00  0.00    +0.000 A 
ATOM      9 CL   UNL     1     -56.668 -48.892 -77.215  0.00  0.00    +0.000 Cl
ATOM     10  C   UNL     1     -56.416 -46.134 -77.039  0.00  0.00    +0.000 A 
ATOM     11  C   UNL     1     -57.691 -45.887 -77.761  0.00  0.00    +0.000 A 
ATOM     12  O   UNL     1     -58.580 -46.733 -77.746  0.00  0.00    +0.000 OA
ATOM     13  C   UNL     1     -57.870 -44.559 -78.491  0.00  0.00    +0.000 A 
ATOM     14  H   UNL     1     -55.640 -42.915 -76.756  0.00  0.00    +0.000 HD
ENDROOT
BRANCH   1  15
ATOM     15  S   UNL     1     -57.182 -41.800 -78.531  0.00  0.00    +0.000 S 
ATOM     16  O   UNL     1     -55.869 -41.254 -78.038  0.00  0.00    +0.000 OA
BRANCH  15  17
ATOM     17  C   UNL     1     -58.527 -41.022 -77.575  0.00  0.00    +0.000 C 
BRANCH  17  21
ATOM     18  C   UNL     1     -57.471 -40.799 -72.511  0.00  0.00    +0.000 C 
ATOM     19  C   UNL     1     -57.904 -41.016 -73.909  0.00  0.00    +0.000 A 
ATOM     20  C   UNL     1     -57.685 -40.375 -75.107  0.00  0.00    +0.000 A 
ATOM     21  C   UNL     1     -58.388 -41.149 -76.076  0.00  0.00    +0.000 A 
ATOM     22  N   UNL     1     -59.005 -42.180 -75.473  0.00  0.00    +0.000 NA
ATOM     23  O   UNL     1     -58.698 -42.095 -74.129  0.00  0.00    +0.000 OA
ENDBRANCH  17  21
ENDBRANCH  15  17
ENDBRANCH   1  15
BRANCH  13  24
ATOM     24  C   UNL     1     -58.733 -44.578 -79.734  0.00  0.00    +0.000 C 
ATOM     25  O   UNL     1     -58.294 -45.044 -80.785  0.00  0.00    +0.000 OA
BRANCH  24  26
ATOM     26  C   UNL     1     -60.131 -43.960 -79.713  0.00  0.00    +0.000 C 
ATOM     27  C   UNL     1     -61.073 -44.658 -80.690  0.00  0.00    +0.000 C 
ATOM     28  C   UNL     1     -60.734 -43.955 -78.306  0.00  0.00    +0.000 C 
ENDBRANCH  24  26
ENDBRANCH  13  24
TORSDOF 5
