REMARK VINA RESULT:    -5.567     13.372     16.210
REMARK INTER + INTRA:          -8.096
REMARK INTER:                  -7.242
REMARK INTRA:                  -0.854
REMARK UNBOUND:                -0.901
REMARK  Name = 
REMARK  6 active torsions:
REMARK  status: ('A' for Active; 'I' for Inactive)
REMARK    1  A    between atoms: C_1  and  C_2
REMARK    2  A    between atoms: C_4  and  C_5
REMARK    3  A    between atoms: C_5  and  S_6
REMARK    4  A    between atoms: S_6  and  C_8
REMARK    5  A    between atoms: C_20  and  C_21
REMARK    6  A    between atoms: C_21  and  C_23
REMARK                            x       y       z     vdW  Elec       q    Type
REMARK                         _______ _______ _______ _____ _____    ______ ____
ROOT
ATOM      1  C   UNL     1     -55.272 -42.286 -78.962  0.00  0.00    +0.000 A 
ATOM      2  N   UNL     1     -56.650 -42.191 -79.238  0.00  0.00    +0.000 N 
ATOM      3  C   UNL     1     -57.105 -41.866 -80.545  0.00  0.00    +0.000 A 
ATOM      4  C   UNL     1     -58.414 -42.130 -80.991  0.00  0.00    +0.000 A 
ATOM      5 BR   UNL     1     -59.631 -43.116 -79.922  0.00  0.00    +0.000 Br
ATOM      6  C   UNL     1     -58.854 -41.693 -82.248  0.00  0.00    +0.000 A 
ATOM      7  C   UNL     1     -57.972 -41.007 -83.090  0.00  0.00    +0.000 A 
ATOM      8  C   UNL     1     -56.669 -40.735 -82.672  0.00  0.00    +0.000 A 
ATOM      9 CL   UNL     1     -55.639 -39.947 -83.812  0.00  0.00    +0.000 Cl
ATOM     10  C   UNL     1     -56.252 -41.146 -81.397  0.00  0.00    +0.000 A 
ATOM     11  C   UNL     1     -54.924 -40.830 -80.835  0.00  0.00    +0.000 A 
ATOM     12  O   UNL     1     -54.322 -39.808 -81.141  0.00  0.00    +0.000 OA
ATOM     13  C   UNL     1     -54.356 -41.761 -79.806  0.00  0.00    +0.000 A 
ATOM     14  H   UNL     1     -57.190 -42.942 -78.787  0.00  0.00    +0.000 HD
ENDROOT
BRANCH   1  15
ATOM     15  S   UNL     1     -54.901 -43.513 -77.682  0.00  0.00    +0.000 S 
ATOM     16  O   UNL     1     -54.756 -44.805 -78.439  0.00  0.00    +0.000 OA
BRANCH  15  17
ATOM     17  C   UNL     1     -56.332 -43.689 -76.576  0.00  0.00    +0.000 C 
BRANCH  17  21
ATOM     18  C   UNL     1     -57.756 -40.851 -72.559  0.00  0.00    +0.000 C 
ATOM     19  C   UNL     1     -57.161 -41.692 -73.614  0.00  0.00    +0.000 A 
ATOM     20  C   UNL     1     -57.622 -42.247 -74.784  0.00  0.00    +0.000 A 
ATOM     21  C   UNL     1     -56.487 -42.860 -75.359  0.00  0.00    +0.000 A 
ATOM     22  N   UNL     1     -55.423 -42.740 -74.544  0.00  0.00    +0.000 NA
ATOM     23  O   UNL     1     -55.850 -42.008 -73.456  0.00  0.00    +0.000 OA
ENDBRANCH  17  21
ENDBRANCH  15  17
ENDBRANCH   1  15
BRANCH  13  24
ATOM     24  C   UNL     1     -52.912 -42.072 -80.011  0.00  0.00    +0.000 C 
ATOM     25  O   UNL     1     -52.087 -41.765 -79.168  0.00  0.00    +0.000 OA
BRANCH  24  26
ATOM     26  C   UNL     1     -52.507 -42.798 -81.229  0.00  0.00    +0.000 C 
ATOM     27  C   UNL     1     -51.043 -42.925 -81.564  0.00  0.00    +0.000 C 
ATOM     28  C   UNL     1     -51.928 -42.070 -82.419  0.00  0.00    +0.000 C 
ENDBRANCH  24  26
ENDBRANCH  13  24
TORSDOF 5
