REMARK VINA RESULT:    -6.219      4.059      7.635
REMARK INTER + INTRA:          -9.034
REMARK INTER:                  -8.187
REMARK INTRA:                  -0.847
REMARK UNBOUND:                -0.997
REMARK  Name = 
REMARK  8 active torsions:
REMARK  status: ('A' for Active; 'I' for Inactive)
REMARK    1  A    between atoms: C_1  and  C_2
REMARK    2  A    between atoms: C_4  and  C_5
REMARK    3  A    between atoms: C_5  and  S_6
REMARK    4  A    between atoms: S_6  and  C_8
REMARK    5  A    between atoms: C_20  and  C_21
REMARK    6  A    between atoms: C_21  and  C_23
REMARK    7  A    between atoms: C_23  and  C_24
REMARK    8  A    between atoms: C_23  and  C_25
REMARK                            x       y       z     vdW  Elec       q    Type
REMARK                         _______ _______ _______ _____ _____    ______ ____
ROOT
ATOM      1  C   UNL     1     -54.164 -41.272 -78.455  0.00  0.00    +0.000 A 
ATOM      2  N   UNL     1     -55.522 -41.580 -78.490  0.00  0.00    +0.000 N 
ATOM      3  C   UNL     1     -56.306 -41.608 -77.317  0.00  0.00    +0.000 A 
ATOM      4  C   UNL     1     -57.712 -41.530 -77.355  0.00  0.00    +0.000 A 
ATOM      5 CL   UNL     1     -58.539 -41.231 -78.843  0.00  0.00    +0.000 Cl
ATOM      6  C   UNL     1     -58.471 -41.665 -76.193  0.00  0.00    +0.000 A 
ATOM      7  C   UNL     1     -57.830 -41.877 -74.971  0.00  0.00    +0.000 A 
ATOM      8  C   UNL     1     -56.432 -41.943 -74.910  0.00  0.00    +0.000 A 
ATOM      9 CL   UNL     1     -55.753 -42.141 -73.336  0.00  0.00    +0.000 Cl
ATOM     10  C   UNL     1     -55.674 -41.820 -76.084  0.00  0.00    +0.000 A 
ATOM     11  C   UNL     1     -54.196 -41.953 -76.152  0.00  0.00    +0.000 A 
ATOM     12  O   UNL     1     -53.619 -42.646 -75.321  0.00  0.00    +0.000 OA
ATOM     13  C   UNL     1     -53.439 -41.300 -77.301  0.00  0.00    +0.000 A 
ATOM     14  H   UNL     1     -56.001 -41.233 -79.332  0.00  0.00    +0.000 HD
ENDROOT
BRANCH   1  15
ATOM     15  S   UNL     1     -53.593 -40.606 -80.071  0.00  0.00    +0.000 S 
ATOM     16  O   UNL     1     -54.299 -39.282 -80.180  0.00  0.00    +0.000 OA
BRANCH  15  17
ATOM     17  C   UNL     1     -54.375 -41.748 -81.282  0.00  0.00    +0.000 C 
BRANCH  17  21
ATOM     18  C   UNL     1     -50.563 -43.792 -84.116  0.00  0.00    +0.000 C 
ATOM     19  C   UNL     1     -51.732 -43.400 -83.299  0.00  0.00    +0.000 A 
ATOM     20  C   UNL     1     -52.107 -42.268 -82.613  0.00  0.00    +0.000 A 
ATOM     21  C   UNL     1     -53.393 -42.567 -82.083  0.00  0.00    +0.000 A 
ATOM     22  N   UNL     1     -53.744 -43.822 -82.412  0.00  0.00    +0.000 NA
ATOM     23  O   UNL     1     -52.711 -44.333 -83.173  0.00  0.00    +0.000 OA
ENDBRANCH  17  21
ENDBRANCH  15  17
ENDBRANCH   1  15
BRANCH  13  24
ATOM     24  C   UNL     1     -52.056 -40.796 -76.945  0.00  0.00    +0.000 C 
ATOM     25  O   UNL     1     -51.074 -41.534 -77.099  0.00  0.00    +0.000 OA
BRANCH  24  26
ATOM     26  C   UNL     1     -51.832 -39.462 -76.259  0.00  0.00    +0.000 C 
ATOM     27  C   UNL     1     -50.375 -39.329 -75.859  0.00  0.00    +0.000 C 
ATOM     28  C   UNL     1     -52.340 -38.301 -77.106  0.00  0.00    +0.000 C 
ENDBRANCH  24  26
ENDBRANCH  13  24
TORSDOF 5
