=
 OpenBabel09172513443D

 26 28  0  0  0  0  0  0  0  0999 V2000
  -55.9580  -42.7220  -62.5290 C   0  0  0  0  0  0  0  0  0  0  0  0
  -55.7410  -41.5260  -63.1220 C   0  0  0  0  0  0  0  0  0  0  0  0
  -54.5600  -41.1990  -63.7570 N   0  0  0  0  0  0  0  0  0  0  0  0
  -53.4350  -42.0410  -63.7640 C   0  0  0  0  0  0  0  0  0  0  0  0
  -52.2660  -41.6810  -64.4610 C   0  0  0  0  0  0  0  0  0  0  0  0
  -52.1410  -40.0140  -65.3640 Br  0  0  0  0  0  0  0  0  0  0  0  0
  -51.1690  -42.5390  -64.5150 C   0  0  0  0  0  3  0  0  0  0  0  0
  -51.2290  -43.7730  -63.8770 C   0  0  0  0  0  3  0  0  0  0  0  0
  -52.3890  -44.1660  -63.1990 C   0  0  0  0  0  0  0  0  0  0  0  0
  -52.3140  -45.7290  -62.4620 Cl  0  0  0  0  0  0  0  0  0  0  0  0
  -53.5080  -43.3090  -63.1590 C   0  0  0  0  0  0  0  0  0  0  0  0
  -54.7810  -43.6580  -62.4720 C   0  0  0  0  0  0  0  0  0  0  0  0
  -54.8620  -44.6880  -61.8150 O   0  0  0  0  0  0  0  0  0  0  0  0
  -54.3700  -40.2000  -63.8590 H   0  0  0  0  0  0  0  0  0  0  0  0
  -58.1700  -44.0760  -62.6640 C   0  0  0  0  0  1  0  0  0  0  0  0
  -57.2580  -43.1440  -61.8990 C   0  0  0  0  0  0  0  0  0  0  0  0
  -57.6110  -42.7280  -60.7970 O   0  0  0  0  0  0  0  0  0  0  0  0
  -56.9490  -40.1660  -62.9740 S   0  0  1  0  0  0  0  0  0  0  0  0
  -56.2590  -39.0120  -63.6540 O   0  0  0  0  0  0  0  0  0  0  0  0
  -58.2180  -40.7590  -64.1480 C   0  0  0  0  0  2  0  0  0  0  0  0
  -57.6010  -41.3640  -65.3680 C   0  0  0  0  0  0  0  0  0  0  0  0
  -57.7470  -42.6770  -65.8880 C   0  0  0  0  0  3  0  0  0  0  0  0
  -57.0280  -42.6690  -67.0560 C   0  0  0  0  0  0  0  0  0  0  0  0
  -56.7530  -43.6670  -68.1070 C   0  0  0  0  0  1  0  0  0  0  0  0
  -56.4860  -41.4370  -67.2330 O   0  0  0  0  0  0  0  0  0  0  0  0
  -56.8450  -40.6130  -66.1800 N   0  0  0  0  0  0  0  0  0  0  0  0
  1 12  1  0  0  0  0
  1 16  1  0  0  0  0
  2 18  1  0  0  0  0
  2  1  2  0  0  0  0
  3  2  1  0  0  0  0
  4  3  1  0  0  0  0
  4 11  1  0  0  0  0
  5  4  2  0  0  0  0
  6  5  1  0  0  0  0
  7  5  1  0  0  0  0
  7  8  2  0  0  0  0
  8  9  1  0  0  0  0
  9 11  2  0  0  0  0
  9 10  1  0  0  0  0
 11 12  1  0  0  0  0
 12 13  2  0  0  0  0
 14  3  1  0  0  0  0
 15 16  1  0  0  0  0
 16 17  2  0  0  0  0
 18 19  2  6  0  0  0
 20 18  1  0  0  0  0
 21 20  1  0  0  0  0
 22 21  1  0  0  0  0
 23 22  2  0  0  0  0
 24 23  1  0  0  0  0
 25 23  1  0  0  0  0
 25 26  1  0  0  0  0
 26 21  2  0  0  0  0
M  END
>  <MODEL>
1

>  <REMARK>
 VINA RESULT:    -7.068      0.000      0.000
 INTER + INTRA:          -9.387
 INTER:                  -8.720
 INTRA:                  -0.667
 UNBOUND:                -0.667
  Name = 
  6 active torsions:
  status: ('A' for Active; 'I' for Inactive)
    1  A    between atoms: C_1  and  C_2
    2  A    between atoms: C_2  and  C_4
    3  A    between atoms: C_5  and  S_6
    4  A    between atoms: S_6  and  C_8
    5  A    between atoms: C_8  and  C_9
    6  A    between atoms: C_11  and  C_12
                            x       y       z     vdW  Elec       q    Type
                         _______ _______ _______ _____ _____    ______ ____

>  <TORSDO>
F 4

$$$$
