REMARK VINA RESULT:    -6.322     13.615     15.793
REMARK INTER + INTRA:          -9.040
REMARK INTER:                  -8.109
REMARK INTRA:                  -0.931
REMARK UNBOUND:                -0.869
REMARK  Name = 
REMARK  6 active torsions:
REMARK  status: ('A' for Active; 'I' for Inactive)
REMARK    1  A    between atoms: C_1  and  C_2
REMARK    2  A    between atoms: C_4  and  C_5
REMARK    3  A    between atoms: C_5  and  S_6
REMARK    4  A    between atoms: S_6  and  C_8
REMARK    5  A    between atoms: C_20  and  C_21
REMARK    6  A    between atoms: C_21  and  C_23
REMARK                            x       y       z     vdW  Elec       q    Type
REMARK                         _______ _______ _______ _____ _____    ______ ____
ROOT
ATOM      1  C   UNL     1     -55.259 -42.866 -79.406  0.00  0.00    +0.000 A 
ATOM      2  N   UNL     1     -55.414 -44.257 -79.249  0.00  0.00    +0.000 N 
ATOM      3  C   UNL     1     -55.182 -44.873 -77.989  0.00  0.00    +0.000 A 
ATOM      4  C   UNL     1     -55.679 -46.147 -77.654  0.00  0.00    +0.000 A 
ATOM      5 BR   UNL     1     -56.862 -47.072 -78.812  0.00  0.00    +0.000 Br
ATOM      6  C   UNL     1     -55.335 -46.764 -76.443  0.00  0.00    +0.000 A 
ATOM      7  C   UNL     1     -54.505 -46.095 -75.536  0.00  0.00    +0.000 A 
ATOM      8  C   UNL     1     -54.002 -44.831 -75.845  0.00  0.00    +0.000 A 
ATOM      9 CL   UNL     1     -53.048 -44.060 -74.629  0.00  0.00    +0.000 Cl
ATOM     10  C   UNL     1     -54.325 -44.239 -77.075  0.00  0.00    +0.000 A 
ATOM     11  C   UNL     1     -53.773 -42.946 -77.525  0.00  0.00    +0.000 A 
ATOM     12  O   UNL     1     -52.662 -42.564 -77.179  0.00  0.00    +0.000 OA
ATOM     13  C   UNL     1     -54.583 -42.134 -78.492  0.00  0.00    +0.000 A 
ATOM     14  H   UNL     1     -56.247 -44.613 -79.737  0.00  0.00    +0.000 HD
ENDROOT
BRANCH   1  15
ATOM     15  S   UNL     1     -56.393 -42.172 -80.637  0.00  0.00    +0.000 S 
ATOM     16  O   UNL     1     -56.802 -43.356 -81.470  0.00  0.00    +0.000 OA
BRANCH  15  17
ATOM     17  C   UNL     1     -55.488 -41.030 -81.721  0.00  0.00    +0.000 C 
BRANCH  17  21
ATOM     18  C   UNL     1     -50.686 -42.236 -83.028  0.00  0.00    +0.000 C 
ATOM     19  C   UNL     1     -52.124 -41.970 -82.841  0.00  0.00    +0.000 A 
ATOM     20  C   UNL     1     -52.892 -41.489 -81.807  0.00  0.00    +0.000 A 
ATOM     21  C   UNL     1     -54.196 -41.401 -82.343  0.00  0.00    +0.000 A 
ATOM     22  N   UNL     1     -54.219 -41.869 -83.604  0.00  0.00    +0.000 NA
ATOM     23  O   UNL     1     -52.922 -42.222 -83.910  0.00  0.00    +0.000 OA
ENDBRANCH  17  21
ENDBRANCH  15  17
ENDBRANCH   1  15
BRANCH  13  24
ATOM     24  C   UNL     1     -54.630 -40.681 -78.162  0.00  0.00    +0.000 C 
ATOM     25  O   UNL     1     -55.532 -40.231 -77.476  0.00  0.00    +0.000 OA
BRANCH  24  26
ATOM     26  C   UNL     1     -53.542 -39.807 -78.639  0.00  0.00    +0.000 C 
ATOM     27  C   UNL     1     -53.301 -38.485 -77.958  0.00  0.00    +0.000 C 
ATOM     28  C   UNL     1     -53.837 -38.512 -79.357  0.00  0.00    +0.000 C 
ENDBRANCH  24  26
ENDBRANCH  13  24
TORSDOF 5
