REMARK VINA RESULT:    -6.320      1.798      2.424
REMARK INTER + INTRA:          -8.648
REMARK INTER:                  -7.873
REMARK INTRA:                  -0.775
REMARK UNBOUND:                -0.850
REMARK  Name = 
REMARK  6 active torsions:
REMARK  status: ('A' for Active; 'I' for Inactive)
REMARK    1  A    between atoms: C_1  and  C_2
REMARK    2  A    between atoms: C_2  and  C_4
REMARK    3  A    between atoms: C_5  and  S_6
REMARK    4  A    between atoms: S_6  and  C_8
REMARK    5  A    between atoms: C_8  and  C_9
REMARK    6  A    between atoms: C_11  and  C_12
REMARK                            x       y       z     vdW  Elec       q    Type
REMARK                         _______ _______ _______ _____ _____    ______ ____
ROOT
ATOM      1  C   UNL     1     -57.431 -40.598 -62.414  0.00  0.00    +0.000 A 
ATOM      2  C   UNL     1     -56.512 -41.454 -62.914  0.00  0.00    +0.000 A 
ATOM      3  N   UNL     1     -55.364 -41.040 -63.555  0.00  0.00    +0.000 N 
ATOM      4  C   UNL     1     -55.062 -39.690 -63.798  0.00  0.00    +0.000 A 
ATOM      5  C   UNL     1     -53.833 -39.313 -64.365  0.00  0.00    +0.000 A 
ATOM      6 BR   UNL     1     -52.556 -40.625 -64.886  0.00  0.00    +0.000 Br
ATOM      7  C   UNL     1     -53.507 -37.974 -64.555  0.00  0.00    +0.000 A 
ATOM      8  C   UNL     1     -54.410 -36.987 -64.170  0.00  0.00    +0.000 A 
ATOM      9  C   UNL     1     -55.631 -37.333 -63.578  0.00  0.00    +0.000 A 
ATOM     10 CL   UNL     1     -56.643 -35.999 -63.142  0.00  0.00    +0.000 Cl
ATOM     11  C   UNL     1     -55.949 -38.689 -63.365  0.00  0.00    +0.000 A 
ATOM     12  C   UNL     1     -57.211 -39.139 -62.722  0.00  0.00    +0.000 A 
ATOM     13  O   UNL     1     -58.106 -38.336 -62.475  0.00  0.00    +0.000 OA
ATOM     14  H   UNL     1     -54.911 -41.721 -64.164  0.00  0.00    +0.000 HD
ENDROOT
BRANCH   1  16
ATOM     15  C   UNL     1     -59.953 -41.187 -62.356  0.00  0.00    +0.000 C 
ATOM     16  C   UNL     1     -58.643 -40.999 -61.620  0.00  0.00    +0.000 C 
ATOM     17  O   UNL     1     -58.605 -41.136 -60.399  0.00  0.00    +0.000 OA
ENDBRANCH   1  16
BRANCH   2  18
ATOM     18  S   UNL     1     -56.800 -43.254 -62.903  0.00  0.00    +0.000 S 
ATOM     19  O   UNL     1     -57.243 -43.548 -64.311  0.00  0.00    +0.000 OA
BRANCH  18  20
ATOM     20  C   UNL     1     -55.075 -43.826 -62.791  0.00  0.00    +0.000 C 
BRANCH  20  21
ATOM     21  C   UNL     1     -54.664 -44.108 -61.384  0.00  0.00    +0.000 A 
ATOM     22  C   UNL     1     -54.913 -43.348 -60.211  0.00  0.00    +0.000 A 
ATOM     23  C   UNL     1     -54.400 -44.108 -59.190  0.00  0.00    +0.000 A 
ATOM     24  C   UNL     1     -54.328 -43.959 -57.724  0.00  0.00    +0.000 C 
ATOM     25  O   UNL     1     -53.865 -45.245 -59.709  0.00  0.00    +0.000 OA
ATOM     26  N   UNL     1     -54.034 -45.252 -61.083  0.00  0.00    +0.000 NA
ENDBRANCH  20  21
ENDBRANCH  18  20
ENDBRANCH   2  18
TORSDOF 4
