REMARK VINA RESULT:    -5.594     12.159     14.149
REMARK INTER + INTRA:          -8.092
REMARK INTER:                  -7.168
REMARK INTRA:                  -0.924
REMARK UNBOUND:                -0.863
REMARK  Name = 
REMARK  6 active torsions:
REMARK  status: ('A' for Active; 'I' for Inactive)
REMARK    1  A    between atoms: C_1  and  C_2
REMARK    2  A    between atoms: C_4  and  C_5
REMARK    3  A    between atoms: C_5  and  S_6
REMARK    4  A    between atoms: S_6  and  C_8
REMARK    5  A    between atoms: C_20  and  C_21
REMARK    6  A    between atoms: C_21  and  C_23
REMARK                            x       y       z     vdW  Elec       q    Type
REMARK                         _______ _______ _______ _____ _____    ______ ____
ROOT
ATOM      1  C   UNL     1     -56.933 -38.721 -62.776  0.00  0.00    +0.000 A 
ATOM      2  N   UNL     1     -56.656 -40.035 -63.202  0.00  0.00    +0.000 N 
ATOM      3  C   UNL     1     -55.357 -40.387 -63.663  0.00  0.00    +0.000 A 
ATOM      4  C   UNL     1     -54.901 -41.717 -63.730  0.00  0.00    +0.000 A 
ATOM      5 BR   UNL     1     -55.937 -43.144 -63.030  0.00  0.00    +0.000 Br
ATOM      6  C   UNL     1     -53.656 -42.029 -64.294  0.00  0.00    +0.000 A 
ATOM      7  C   UNL     1     -52.837 -41.001 -64.775  0.00  0.00    +0.000 A 
ATOM      8  C   UNL     1     -53.267 -39.675 -64.718  0.00  0.00    +0.000 A 
ATOM      9 CL   UNL     1     -52.154 -38.476 -65.272  0.00  0.00    +0.000 Cl
ATOM     10  C   UNL     1     -54.531 -39.379 -64.184  0.00  0.00    +0.000 A 
ATOM     11  C   UNL     1     -55.105 -38.020 -64.160  0.00  0.00    +0.000 A 
ATOM     12  O   UNL     1     -54.831 -37.190 -65.018  0.00  0.00    +0.000 OA
ATOM     13  C   UNL     1     -56.107 -37.699 -63.092  0.00  0.00    +0.000 A 
ATOM     14  H   UNL     1     -57.083 -40.742 -62.588  0.00  0.00    +0.000 HD
ENDROOT
BRANCH   1  15
ATOM     15  S   UNL     1     -58.177 -38.664 -61.459  0.00  0.00    +0.000 S 
ATOM     16  O   UNL     1     -57.410 -38.211 -60.247  0.00  0.00    +0.000 OA
BRANCH  15  17
ATOM     17  C   UNL     1     -58.782 -40.344 -61.124  0.00  0.00    +0.000 C 
BRANCH  17  21
ATOM     18  C   UNL     1     -55.847 -43.042 -57.911  0.00  0.00    +0.000 C 
ATOM     19  C   UNL     1     -56.850 -42.303 -58.699  0.00  0.00    +0.000 A 
ATOM     20  C   UNL     1     -56.811 -41.535 -59.838  0.00  0.00    +0.000 A 
ATOM     21  C   UNL     1     -58.161 -41.208 -60.093  0.00  0.00    +0.000 A 
ATOM     22  N   UNL     1     -58.955 -41.693 -59.123  0.00  0.00    +0.000 NA
ATOM     23  O   UNL     1     -58.131 -42.378 -58.255  0.00  0.00    +0.000 OA
ENDBRANCH  17  21
ENDBRANCH  15  17
ENDBRANCH   1  15
BRANCH  13  24
ATOM     24  C   UNL     1     -55.897 -36.368 -62.454  0.00  0.00    +0.000 C 
ATOM     25  O   UNL     1     -55.068 -36.228 -61.571  0.00  0.00    +0.000 OA
BRANCH  24  26
ATOM     26  C   UNL     1     -56.676 -35.214 -62.942  0.00  0.00    +0.000 C 
ATOM     27  C   UNL     1     -56.674 -33.931 -62.152  0.00  0.00    +0.000 C 
ATOM     28  C   UNL     1     -57.924 -34.754 -62.229  0.00  0.00    +0.000 C 
ENDBRANCH  24  26
ENDBRANCH  13  24
TORSDOF 5
