REMARK VINA RESULT:    -5.614      3.653      6.123
REMARK INTER + INTRA:          -8.297
REMARK INTER:                  -7.434
REMARK INTRA:                  -0.863
REMARK UNBOUND:                -1.042
REMARK  Name = 
REMARK  8 active torsions:
REMARK  status: ('A' for Active; 'I' for Inactive)
REMARK    1  A    between atoms: C_1  and  C_2
REMARK    2  A    between atoms: C_4  and  C_5
REMARK    3  A    between atoms: C_5  and  S_6
REMARK    4  A    between atoms: S_6  and  C_8
REMARK    5  A    between atoms: C_20  and  C_21
REMARK    6  A    between atoms: C_21  and  C_23
REMARK    7  A    between atoms: C_23  and  C_24
REMARK    8  A    between atoms: C_23  and  C_25
REMARK                            x       y       z     vdW  Elec       q    Type
REMARK                         _______ _______ _______ _____ _____    ______ ____
ROOT
ATOM      1  C   UNL     1     -58.017 -40.069 -62.893  0.00  0.00    +0.000 A 
ATOM      2  N   UNL     1     -58.083 -38.930 -62.095  0.00  0.00    +0.000 N 
ATOM      3  C   UNL     1     -57.439 -37.733 -62.461  0.00  0.00    +0.000 A 
ATOM      4  C   UNL     1     -57.814 -36.486 -61.926  0.00  0.00    +0.000 A 
ATOM      5 BR   UNL     1     -59.327 -36.326 -60.793  0.00  0.00    +0.000 Br
ATOM      6  C   UNL     1     -57.106 -35.324 -62.247  0.00  0.00    +0.000 A 
ATOM      7  C   UNL     1     -56.018 -35.390 -63.111  0.00  0.00    +0.000 A 
ATOM      8  C   UNL     1     -55.632 -36.625 -63.664  0.00  0.00    +0.000 A 
ATOM      9 CL   UNL     1     -54.313 -36.570 -64.777  0.00  0.00    +0.000 Cl
ATOM     10  C   UNL     1     -56.341 -37.798 -63.334  0.00  0.00    +0.000 A 
ATOM     11  C   UNL     1     -55.993 -39.152 -63.837  0.00  0.00    +0.000 A 
ATOM     12  O   UNL     1     -54.848 -39.396 -64.208  0.00  0.00    +0.000 OA
ATOM     13  C   UNL     1     -57.080 -40.224 -63.858  0.00  0.00    +0.000 A 
ATOM     14  H   UNL     1     -58.973 -38.828 -61.588  0.00  0.00    +0.000 HD
ENDROOT
BRANCH   1  15
ATOM     15  S   UNL     1     -59.453 -41.172 -62.611  0.00  0.00    +0.000 S 
ATOM     16  O   UNL     1     -60.500 -40.258 -62.034  0.00  0.00    +0.000 OA
BRANCH  15  17
ATOM     17  C   UNL     1     -58.870 -42.289 -61.291  0.00  0.00    +0.000 C 
BRANCH  17  21
ATOM     18  C   UNL     1     -62.145 -45.969 -59.699  0.00  0.00    +0.000 C 
ATOM     19  C   UNL     1     -61.176 -45.038 -60.319  0.00  0.00    +0.000 A 
ATOM     20  C   UNL     1     -60.736 -43.764 -60.043  0.00  0.00    +0.000 A 
ATOM     21  C   UNL     1     -59.759 -43.485 -61.042  0.00  0.00    +0.000 A 
ATOM     22  N   UNL     1     -59.647 -44.534 -61.875  0.00  0.00    +0.000 NA
ATOM     23  O   UNL     1     -60.527 -45.497 -61.419  0.00  0.00    +0.000 OA
ENDBRANCH  17  21
ENDBRANCH  15  17
ENDBRANCH   1  15
BRANCH  13  24
ATOM     24  C   UNL     1     -56.987 -41.264 -64.952  0.00  0.00    +0.000 C 
ATOM     25  O   UNL     1     -57.395 -41.010 -66.084  0.00  0.00    +0.000 OA
BRANCH  24  26
ATOM     26  C   UNL     1     -56.448 -42.662 -64.644  0.00  0.00    +0.000 C 
ATOM     27  C   UNL     1     -55.632 -42.683 -63.355  0.00  0.00    +0.000 C 
ATOM     28  C   UNL     1     -57.567 -43.705 -64.582  0.00  0.00    +0.000 C 
ENDBRANCH  24  26
ENDBRANCH  13  24
TORSDOF 5
