REMARK VINA RESULT:    -6.717     11.080     13.543
REMARK INTER + INTRA:          -9.590
REMARK INTER:                  -8.697
REMARK INTRA:                  -0.893
REMARK UNBOUND:                -0.910
REMARK  Name = 
REMARK  6 active torsions:
REMARK  status: ('A' for Active; 'I' for Inactive)
REMARK    1  A    between atoms: C_1  and  C_2
REMARK    2  A    between atoms: C_4  and  C_5
REMARK    3  A    between atoms: C_5  and  S_6
REMARK    4  A    between atoms: S_6  and  C_8
REMARK    5  A    between atoms: C_20  and  C_21
REMARK    6  A    between atoms: C_21  and  C_23
REMARK                            x       y       z     vdW  Elec       q    Type
REMARK                         _______ _______ _______ _____ _____    ______ ____
ROOT
ATOM      1  C   UNL     1     -57.789 -41.052 -62.788  0.00  0.00    +0.000 A 
ATOM      2  N   UNL     1     -57.316 -39.783 -62.401  0.00  0.00    +0.000 N 
ATOM      3  C   UNL     1     -56.219 -39.183 -63.079  0.00  0.00    +0.000 A 
ATOM      4  C   UNL     1     -55.944 -37.803 -63.024  0.00  0.00    +0.000 A 
ATOM      5 BR   UNL     1     -57.139 -36.600 -62.173  0.00  0.00    +0.000 Br
ATOM      6  C   UNL     1     -54.791 -37.270 -63.615  0.00  0.00    +0.000 A 
ATOM      7  C   UNL     1     -53.908 -38.115 -64.297  0.00  0.00    +0.000 A 
ATOM      8  C   UNL     1     -54.160 -39.485 -64.367  0.00  0.00    +0.000 A 
ATOM      9 CL   UNL     1     -53.049 -40.430 -65.292  0.00  0.00    +0.000 Cl
ATOM     10  C   UNL     1     -55.299 -40.012 -63.740  0.00  0.00    +0.000 A 
ATOM     11  C   UNL     1     -55.603 -41.455 -63.687  0.00  0.00    +0.000 A 
ATOM     12  O   UNL     1     -54.718 -42.301 -63.678  0.00  0.00    +0.000 OA
ATOM     13  C   UNL     1     -57.040 -41.867 -63.563  0.00  0.00    +0.000 A 
ATOM     14  H   UNL     1     -58.082 -39.128 -62.192  0.00  0.00    +0.000 HD
ENDROOT
BRANCH   1  15
ATOM     15  S   UNL     1     -59.574 -41.237 -62.531  0.00  0.00    +0.000 S 
ATOM     16  O   UNL     1     -60.086 -39.824 -62.462  0.00  0.00    +0.000 OA
BRANCH  15  17
ATOM     17  C   UNL     1     -59.877 -42.005 -60.912  0.00  0.00    +0.000 C 
BRANCH  17  21
ATOM     18  C   UNL     1     -61.768 -46.632 -59.803  0.00  0.00    +0.000 C 
ATOM     19  C   UNL     1     -61.153 -45.388 -60.302  0.00  0.00    +0.000 A 
ATOM     20  C   UNL     1     -61.120 -44.084 -59.869  0.00  0.00    +0.000 A 
ATOM     21  C   UNL     1     -60.262 -43.428 -60.780  0.00  0.00    +0.000 A 
ATOM     22  N   UNL     1     -59.862 -44.276 -61.744  0.00  0.00    +0.000 NA
ATOM     23  O   UNL     1     -60.420 -45.500 -61.439  0.00  0.00    +0.000 OA
ENDBRANCH  17  21
ENDBRANCH  15  17
ENDBRANCH   1  15
BRANCH  13  24
ATOM     24  C   UNL     1     -57.418 -43.001 -64.454  0.00  0.00    +0.000 C 
ATOM     25  O   UNL     1     -57.407 -44.146 -64.038  0.00  0.00    +0.000 OA
BRANCH  24  26
ATOM     26  C   UNL     1     -57.851 -42.707 -65.834  0.00  0.00    +0.000 C 
ATOM     27  C   UNL     1     -57.959 -43.831 -66.832  0.00  0.00    +0.000 C 
ATOM     28  C   UNL     1     -56.887 -42.797 -66.992  0.00  0.00    +0.000 C 
ENDBRANCH  24  26
ENDBRANCH  13  24
TORSDOF 5
