=
 OpenBabel09172513283D

 26 28  0  0  0  0  0  0  0  0999 V2000
  -56.8900  -40.8040  -61.8400 C   0  0  0  0  0  0  0  0  0  0  0  0
  -55.9550  -41.5620  -62.4570 C   0  0  0  0  0  0  0  0  0  0  0  0
  -54.9740  -41.0360  -63.2710 N   0  0  0  0  0  0  0  0  0  0  0  0
  -54.8810  -39.6690  -63.5810 C   0  0  0  0  0  0  0  0  0  0  0  0
  -53.8050  -39.1690  -64.3330 C   0  0  0  0  0  0  0  0  0  0  0  0
  -52.4660  -40.3360  -65.0170 Br  0  0  0  0  0  0  0  0  0  0  0  0
  -53.6780  -37.8080  -64.5930 C   0  0  0  0  0  3  0  0  0  0  0  0
  -54.6300  -36.9230  -64.0940 C   0  0  0  0  0  3  0  0  0  0  0  0
  -55.6980  -37.3910  -63.3190 C   0  0  0  0  0  0  0  0  0  0  0  0
  -56.7910  -36.1730  -62.7580 Cl  0  0  0  0  0  0  0  0  0  0  0  0
  -55.8120  -38.7670  -63.0360 C   0  0  0  0  0  0  0  0  0  0  0  0
  -56.8990  -39.3410  -62.2020 C   0  0  0  0  0  0  0  0  0  0  0  0
  -57.8400  -38.6430  -61.8380 O   0  0  0  0  0  0  0  0  0  0  0  0
  -54.5350  -41.6790  -63.9290 H   0  0  0  0  0  0  0  0  0  0  0  0
  -57.5190  -41.4330  -59.4080 C   0  0  0  0  0  1  0  0  0  0  0  0
  -57.9120  -41.3190  -60.8660 C   0  0  0  0  0  0  0  0  0  0  0  0
  -59.0300  -41.6830  -61.2250 O   0  0  0  0  0  0  0  0  0  0  0  0
  -56.0140  -43.3810  -62.3710 S   0  0  1  0  0  0  0  0  0  0  0  0
  -55.7180  -43.8100  -63.7840 O   0  0  0  0  0  0  0  0  0  0  0  0
  -54.4850  -43.6790  -61.4270 C   0  0  0  0  0  2  0  0  0  0  0  0
  -53.4030  -44.2610  -62.2750 C   0  0  0  0  0  0  0  0  0  0  0  0
  -52.3970  -43.5940  -63.0220 C   0  0  0  0  0  3  0  0  0  0  0  0
  -51.6160  -44.6020  -63.5290 C   0  0  0  0  0  0  0  0  0  0  0  0
  -50.4000  -44.6490  -64.3630 C   0  0  0  0  0  1  0  0  0  0  0  0
  -52.1200  -45.7990  -63.1270 O   0  0  0  0  0  0  0  0  0  0  0  0
  -53.2360  -45.5900  -62.3350 N   0  0  0  0  0  0  0  0  0  0  0  0
  1 16  1  0  0  0  0
  2 18  1  0  0  0  0
  2  1  2  0  0  0  0
  3  2  1  0  0  0  0
  4  3  1  0  0  0  0
  4 11  1  0  0  0  0
  5  4  2  0  0  0  0
  6  5  1  0  0  0  0
  7  5  1  0  0  0  0
  7  8  2  0  0  0  0
  8  9  1  0  0  0  0
  9 11  2  0  0  0  0
  9 10  1  0  0  0  0
 11 12  1  0  0  0  0
 12  1  1  0  0  0  0
 12 13  2  0  0  0  0
 14  3  1  0  0  0  0
 16 15  1  0  0  0  0
 17 16  2  0  0  0  0
 18 19  2  6  0  0  0
 18 20  1  0  0  0  0
 21 20  1  0  0  0  0
 22 21  1  0  0  0  0
 23 25  1  0  0  0  0
 23 22  2  0  0  0  0
 24 23  1  0  0  0  0
 25 26  1  0  0  0  0
 26 21  2  0  0  0  0
M  END
>  <MODEL>
1

>  <REMARK>
 VINA RESULT:    -6.666      0.000      0.000
 INTER + INTRA:          -9.075
 INTER:                  -8.224
 INTRA:                  -0.850
 UNBOUND:                -0.850
  Name = 
  6 active torsions:
  status: ('A' for Active; 'I' for Inactive)
    1  A    between atoms: C_1  and  C_2
    2  A    between atoms: C_2  and  C_4
    3  A    between atoms: C_5  and  S_6
    4  A    between atoms: S_6  and  C_8
    5  A    between atoms: C_8  and  C_9
    6  A    between atoms: C_11  and  C_12
                            x       y       z     vdW  Elec       q    Type
                         _______ _______ _______ _____ _____    ______ ____

>  <TORSDO>
F 4

$$$$
