REMARK VINA RESULT:    -5.546      3.497      6.657
REMARK INTER + INTRA:          -8.164
REMARK INTER:                  -7.201
REMARK INTRA:                  -0.964
REMARK UNBOUND:                -0.997
REMARK  Name = 
REMARK  8 active torsions:
REMARK  status: ('A' for Active; 'I' for Inactive)
REMARK    1  A    between atoms: C_1  and  C_2
REMARK    2  A    between atoms: C_4  and  C_5
REMARK    3  A    between atoms: C_5  and  S_6
REMARK    4  A    between atoms: S_6  and  C_8
REMARK    5  A    between atoms: C_20  and  C_21
REMARK    6  A    between atoms: C_21  and  C_23
REMARK    7  A    between atoms: C_23  and  C_24
REMARK    8  A    between atoms: C_23  and  C_25
REMARK                            x       y       z     vdW  Elec       q    Type
REMARK                         _______ _______ _______ _____ _____    ______ ____
ROOT
ATOM      1  C   UNL     1     -55.771 -42.549 -77.630  0.00  0.00    +0.000 A 
ATOM      2  N   UNL     1     -57.048 -42.998 -77.302  0.00  0.00    +0.000 N 
ATOM      3  C   UNL     1     -57.661 -42.658 -76.077  0.00  0.00    +0.000 A 
ATOM      4  C   UNL     1     -59.052 -42.760 -75.884  0.00  0.00    +0.000 A 
ATOM      5 CL   UNL     1     -60.100 -43.156 -77.199  0.00  0.00    +0.000 Cl
ATOM      6  C   UNL     1     -59.624 -42.518 -74.635  0.00  0.00    +0.000 A 
ATOM      7  C   UNL     1     -58.807 -42.165 -73.558  0.00  0.00    +0.000 A 
ATOM      8  C   UNL     1     -57.423 -42.044 -73.735  0.00  0.00    +0.000 A 
ATOM      9 CL   UNL     1     -56.527 -41.537 -72.349  0.00  0.00    +0.000 Cl
ATOM     10  C   UNL     1     -56.851 -42.302 -74.990  0.00  0.00    +0.000 A 
ATOM     11  C   UNL     1     -55.393 -42.283 -75.273  0.00  0.00    +0.000 A 
ATOM     12  O   UNL     1     -54.605 -42.529 -74.367  0.00  0.00    +0.000 OA
ATOM     13  C   UNL     1     -54.913 -42.046 -76.699  0.00  0.00    +0.000 A 
ATOM     14  H   UNL     1     -57.682 -43.062 -78.109  0.00  0.00    +0.000 HD
ENDROOT
BRANCH   1  15
ATOM     15  S   UNL     1     -55.532 -42.503 -79.453  0.00  0.00    +0.000 S 
ATOM     16  O   UNL     1     -56.007 -41.128 -79.838  0.00  0.00    +0.000 OA
BRANCH  15  17
ATOM     17  C   UNL     1     -56.783 -43.707 -80.058  0.00  0.00    +0.000 C 
BRANCH  17  21
ATOM     18  C   UNL     1     -56.252 -48.778 -79.195  0.00  0.00    +0.000 C 
ATOM     19  C   UNL     1     -56.206 -47.333 -79.505  0.00  0.00    +0.000 A 
ATOM     20  C   UNL     1     -57.136 -46.323 -79.587  0.00  0.00    +0.000 A 
ATOM     21  C   UNL     1     -56.384 -45.152 -79.887  0.00  0.00    +0.000 A 
ATOM     22  N   UNL     1     -55.083 -45.463 -80.010  0.00  0.00    +0.000 NA
ATOM     23  O   UNL     1     -54.976 -46.818 -79.765  0.00  0.00    +0.000 OA
ENDBRANCH  17  21
ENDBRANCH  15  17
ENDBRANCH   1  15
BRANCH  13  24
ATOM     24  C   UNL     1     -53.604 -41.290 -76.810  0.00  0.00    +0.000 C 
ATOM     25  O   UNL     1     -53.609 -40.052 -76.838  0.00  0.00    +0.000 OA
BRANCH  24  26
ATOM     26  C   UNL     1     -52.280 -41.994 -77.042  0.00  0.00    +0.000 C 
ATOM     27  C   UNL     1     -51.813 -41.749 -78.465  0.00  0.00    +0.000 C 
ATOM     28  C   UNL     1     -51.249 -41.613 -75.987  0.00  0.00    +0.000 C 
ENDBRANCH  24  26
ENDBRANCH  13  24
TORSDOF 5
