REMARK VINA RESULT:    -5.760      3.561      4.891
REMARK INTER + INTRA:          -8.599
REMARK INTER:                  -7.483
REMARK INTRA:                  -1.117
REMARK UNBOUND:                -1.155
REMARK  Name = 
REMARK  6 active torsions:
REMARK  status: ('A' for Active; 'I' for Inactive)
REMARK    1  A    between atoms: C_1  and  C_2
REMARK    2  A    between atoms: C_4  and  C_5
REMARK    3  A    between atoms: C_5  and  S_6
REMARK    4  A    between atoms: S_6  and  C_8
REMARK    5  A    between atoms: C_20  and  C_21
REMARK    6  A    between atoms: C_21  and  C_23
REMARK                            x       y       z     vdW  Elec       q    Type
REMARK                         _______ _______ _______ _____ _____    ______ ____
ROOT
ATOM      1  C   UNL     1     -57.882 -40.588 -62.929  0.00  0.00    +0.000 A 
ATOM      2  N   UNL     1     -57.351 -39.328 -62.593  0.00  0.00    +0.000 N 
ATOM      3  C   UNL     1     -56.189 -38.834 -63.248  0.00  0.00    +0.000 A 
ATOM      4  C   UNL     1     -55.834 -37.472 -63.259  0.00  0.00    +0.000 A 
ATOM      5 BR   UNL     1     -56.992 -36.153 -62.540  0.00  0.00    +0.000 Br
ATOM      6  C   UNL     1     -54.624 -37.043 -63.821  0.00  0.00    +0.000 A 
ATOM      7  C   UNL     1     -53.763 -37.977 -64.409  0.00  0.00    +0.000 A 
ATOM      8  C   UNL     1     -54.095 -39.333 -64.412  0.00  0.00    +0.000 A 
ATOM      9 CL   UNL     1     -53.002 -40.394 -65.224  0.00  0.00    +0.000 Cl
ATOM     10  C   UNL     1     -55.292 -39.754 -63.813  0.00  0.00    +0.000 A 
ATOM     11  C   UNL     1     -55.685 -41.171 -63.693  0.00  0.00    +0.000 A 
ATOM     12  O   UNL     1     -54.854 -42.064 -63.590  0.00  0.00    +0.000 OA
ATOM     13  C   UNL     1     -57.149 -41.491 -63.617  0.00  0.00    +0.000 A 
ATOM     14  H   UNL     1     -58.085 -38.618 -62.460  0.00  0.00    +0.000 HD
ENDROOT
BRANCH   1  15
ATOM     15  S   UNL     1     -59.684 -40.654 -62.751  0.00  0.00    +0.000 S 
ATOM     16  O   UNL     1     -60.078 -39.234 -62.447  0.00  0.00    +0.000 OA
BRANCH  15  17
ATOM     17  C   UNL     1     -60.115 -41.659 -61.300  0.00  0.00    +0.000 C 
BRANCH  17  21
ATOM     18  C   UNL     1     -56.882 -42.356 -57.391  0.00  0.00    +0.000 C 
ATOM     19  C   UNL     1     -57.841 -41.959 -58.439  0.00  0.00    +0.000 A 
ATOM     20  C   UNL     1     -58.322 -42.550 -59.583  0.00  0.00    +0.000 A 
ATOM     21  C   UNL     1     -59.294 -41.646 -60.068  0.00  0.00    +0.000 A 
ATOM     22  N   UNL     1     -59.340 -40.546 -59.297  0.00  0.00    +0.000 NA
ATOM     23  O   UNL     1     -58.431 -40.748 -58.279  0.00  0.00    +0.000 OA
ENDBRANCH  17  21
ENDBRANCH  15  17
ENDBRANCH   1  15
BRANCH  13  24
ATOM     24  C   UNL     1     -57.553 -42.652 -64.460  0.00  0.00    +0.000 C 
ATOM     25  O   UNL     1     -57.641 -43.768 -63.976  0.00  0.00    +0.000 OA
BRANCH  24  26
ATOM     26  C   UNL     1     -57.890 -42.420 -65.877  0.00  0.00    +0.000 C 
ATOM     27  C   UNL     1     -57.896 -43.581 -66.837  0.00  0.00    +0.000 C 
ATOM     28  C   UNL     1     -56.842 -42.523 -66.958  0.00  0.00    +0.000 C 
ENDBRANCH  24  26
ENDBRANCH  13  24
TORSDOF 5
