REMARK VINA RESULT:    -5.586      3.085      3.951
REMARK INTER + INTRA:          -7.928
REMARK INTER:                  -7.041
REMARK INTRA:                  -0.887
REMARK UNBOUND:                -1.035
REMARK  Name = 
REMARK  6 active torsions:
REMARK  status: ('A' for Active; 'I' for Inactive)
REMARK    1  A    between atoms: C_1  and  C_2
REMARK    2  A    between atoms: C_2  and  C_4
REMARK    3  A    between atoms: C_5  and  S_6
REMARK    4  A    between atoms: S_6  and  C_8
REMARK    5  A    between atoms: C_8  and  C_9
REMARK    6  A    between atoms: C_11  and  C_12
REMARK                            x       y       z     vdW  Elec       q    Type
REMARK                         _______ _______ _______ _____ _____    ______ ____
ROOT
ATOM      1  C   UNL     1     -56.236 -42.462 -63.104  0.00  0.00    +0.000 A 
ATOM      2  C   UNL     1     -56.901 -41.627 -62.272  0.00  0.00    +0.000 A 
ATOM      3  N   UNL     1     -56.712 -41.687 -60.907  0.00  0.00    +0.000 N 
ATOM      4  C   UNL     1     -55.814 -42.556 -60.279  0.00  0.00    +0.000 A 
ATOM      5  C   UNL     1     -55.673 -42.575 -58.881  0.00  0.00    +0.000 A 
ATOM      6 BR   UNL     1     -56.621 -41.345 -57.788  0.00  0.00    +0.000 Br
ATOM      7  C   UNL     1     -54.832 -43.490 -58.250  0.00  0.00    +0.000 A 
ATOM      8  C   UNL     1     -54.124 -44.417 -59.012  0.00  0.00    +0.000 A 
ATOM      9  C   UNL     1     -54.248 -44.427 -60.401  0.00  0.00    +0.000 A 
ATOM     10 CL   UNL     1     -53.331 -45.648 -61.218  0.00  0.00    +0.000 Cl
ATOM     11  C   UNL     1     -55.095 -43.490 -61.027  0.00  0.00    +0.000 A 
ATOM     12  C   UNL     1     -55.238 -43.408 -62.492  0.00  0.00    +0.000 A 
ATOM     13  O   UNL     1     -54.495 -44.096 -63.180  0.00  0.00    +0.000 OA
ATOM     14  H   UNL     1     -57.066 -40.905 -60.373  0.00  0.00    +0.000 HD
ENDROOT
BRANCH   1  16
ATOM     15  C   UNL     1     -57.384 -43.381 -65.209  0.00  0.00    +0.000 C 
ATOM     16  C   UNL     1     -56.324 -42.472 -64.597  0.00  0.00    +0.000 C 
ATOM     17  O   UNL     1     -55.591 -41.803 -65.276  0.00  0.00    +0.000 OA
ENDBRANCH   1  16
BRANCH   2  18
ATOM     18  S   UNL     1     -58.165 -40.416 -62.845  0.00  0.00    +0.000 S 
ATOM     19  O   UNL     1     -59.472 -41.111 -62.572  0.00  0.00    +0.000 OA
BRANCH  18  20
ATOM     20  C   UNL     1     -58.054 -39.046 -61.599  0.00  0.00    +0.000 C 
BRANCH  20  21
ATOM     21  C   UNL     1     -56.887 -38.152 -61.843  0.00  0.00    +0.000 A 
ATOM     22  C   UNL     1     -56.848 -36.892 -62.488  0.00  0.00    +0.000 A 
ATOM     23  C   UNL     1     -55.519 -36.555 -62.491  0.00  0.00    +0.000 A 
ATOM     24  C   UNL     1     -54.752 -35.417 -63.019  0.00  0.00    +0.000 C 
ATOM     25  O   UNL     1     -54.804 -37.524 -61.862  0.00  0.00    +0.000 OA
ATOM     26  N   UNL     1     -55.662 -38.518 -61.431  0.00  0.00    +0.000 NA
ENDBRANCH  20  21
ENDBRANCH  18  20
ENDBRANCH   2  18
TORSDOF 4
