REMARK VINA RESULT:    -6.245     14.628     17.094
REMARK INTER + INTRA:          -8.941
REMARK INTER:                  -8.141
REMARK INTRA:                  -0.799
REMARK UNBOUND:                -1.235
REMARK  Name = 
REMARK  5 active torsions:
REMARK  status: ('A' for Active; 'I' for Inactive)
REMARK    1  A    between atoms: C_1  and  C_2
REMARK    2  A    between atoms: C_2  and  C_4
REMARK    3  A    between atoms: C_5  and  S_6
REMARK    4  A    between atoms: S_6  and  C_8
REMARK    5  A    between atoms: C_8  and  C_9
REMARK                            x       y       z     vdW  Elec       q    Type
REMARK                         _______ _______ _______ _____ _____    ______ ____
ROOT
ATOM      1  C   UNL     1     -68.823 -51.207 -55.663  0.00  0.00    +0.000 A 
ATOM      2  C   UNL     1     -67.964 -50.165 -55.764  0.00  0.00    +0.000 A 
ATOM      3  N   UNL     1     -66.809 -50.059 -55.011  0.00  0.00    +0.000 N 
ATOM      4  C   UNL     1     -66.477 -50.958 -53.984  0.00  0.00    +0.000 A 
ATOM      5  C   UNL     1     -65.293 -50.800 -53.242  0.00  0.00    +0.000 A 
ATOM      6 BR   UNL     1     -64.138 -49.323 -53.549  0.00  0.00    +0.000 Br
ATOM      7  C   UNL     1     -64.930 -51.720 -52.262  0.00  0.00    +0.000 A 
ATOM      8  C   UNL     1     -65.750 -52.818 -52.015  0.00  0.00    +0.000 A 
ATOM      9  C   UNL     1     -66.921 -53.011 -52.756  0.00  0.00    +0.000 A 
ATOM     10 CL   UNL     1     -67.837 -54.415 -52.328  0.00  0.00    +0.000 Cl
ATOM     11  C   UNL     1     -67.280 -52.090 -53.762  0.00  0.00    +0.000 A 
ATOM     12  C   UNL     1     -68.501 -52.232 -54.605  0.00  0.00    +0.000 A 
ATOM     13  O   UNL     1     -69.269 -53.165 -54.413  0.00  0.00    +0.000 OA
ATOM     14  H   UNL     1     -66.448 -49.109 -54.899  0.00  0.00    +0.000 HD
ENDROOT
BRANCH   1  16
ATOM     15  C   UNL     1     -71.387 -50.878 -55.966  0.00  0.00    +0.000 C 
ATOM     16  C   UNL     1     -70.062 -51.376 -56.499  0.00  0.00    +0.000 C 
ATOM     17  O   UNL     1     -70.035 -51.935 -57.595  0.00  0.00    +0.000 OA
ENDBRANCH   1  16
BRANCH   2  18
ATOM     18  S   UNL     1     -68.344 -48.704 -56.787  0.00  0.00    +0.000 S 
ATOM     19  O   UNL     1     -69.426 -48.010 -56.001  0.00  0.00    +0.000 OA
BRANCH  18  20
ATOM     20  C   UNL     1     -66.811 -47.739 -56.498  0.00  0.00    +0.000 C 
BRANCH  20  21
ATOM     21  C   UNL     1     -66.010 -47.504 -57.760  0.00  0.00    +0.000 A 
ATOM     22  C   UNL     1     -64.821 -46.755 -57.738  0.00  0.00    +0.000 A 
ATOM     23  C   UNL     1     -64.079 -46.555 -58.906  0.00  0.00    +0.000 A 
ATOM     24  C   UNL     1     -64.508 -47.108 -60.110  0.00  0.00    +0.000 A 
ATOM     25  C   UNL     1     -65.677 -47.866 -60.144  0.00  0.00    +0.000 A 
ATOM     26  C   UNL     1     -66.422 -48.064 -58.979  0.00  0.00    +0.000 A 
ENDBRANCH  20  21
ENDBRANCH  18  20
ENDBRANCH   2  18
TORSDOF 4
