REMARK VINA RESULT:    -5.764     15.011     17.579
REMARK INTER + INTRA:          -8.687
REMARK INTER:                  -7.789
REMARK INTRA:                  -0.899
REMARK UNBOUND:                -1.238
REMARK  Name = 
REMARK  8 active torsions:
REMARK  status: ('A' for Active; 'I' for Inactive)
REMARK    1  A    between atoms: C_1  and  C_2
REMARK    2  A    between atoms: C_4  and  C_5
REMARK    3  A    between atoms: C_5  and  S_6
REMARK    4  A    between atoms: S_6  and  C_8
REMARK    5  A    between atoms: C_20  and  C_21
REMARK    6  A    between atoms: C_21  and  C_23
REMARK    7  A    between atoms: C_23  and  C_24
REMARK    8  A    between atoms: C_23  and  C_25
REMARK                            x       y       z     vdW  Elec       q    Type
REMARK                         _______ _______ _______ _____ _____    ______ ____
ROOT
ATOM      1  C   UNL     1     -66.930 -49.492 -54.250  0.00  0.00    +0.000 A 
ATOM      2  N   UNL     1     -67.529 -50.458 -55.053  0.00  0.00    +0.000 N 
ATOM      3  C   UNL     1     -67.705 -51.783 -54.608  0.00  0.00    +0.000 A 
ATOM      4  C   UNL     1     -68.648 -52.650 -55.191  0.00  0.00    +0.000 A 
ATOM      5 BR   UNL     1     -69.859 -52.028 -56.513  0.00  0.00    +0.000 Br
ATOM      6  C   UNL     1     -68.747 -53.983 -54.784  0.00  0.00    +0.000 A 
ATOM      7  C   UNL     1     -67.910 -54.468 -53.784  0.00  0.00    +0.000 A 
ATOM      8  C   UNL     1     -66.965 -53.616 -53.182  0.00  0.00    +0.000 A 
ATOM      9 CL   UNL     1     -66.033 -54.310 -51.906  0.00  0.00    +0.000 Cl
ATOM     10  C   UNL     1     -66.860 -52.273 -53.599  0.00  0.00    +0.000 A 
ATOM     11  C   UNL     1     -65.876 -51.304 -53.051  0.00  0.00    +0.000 A 
ATOM     12  O   UNL     1     -64.839 -51.707 -52.533  0.00  0.00    +0.000 OA
ATOM     13  C   UNL     1     -66.178 -49.813 -53.170  0.00  0.00    +0.000 A 
ATOM     14  H   UNL     1     -68.264 -50.088 -55.672  0.00  0.00    +0.000 HD
ENDROOT
BRANCH   1  15
ATOM     15  S   UNL     1     -67.468 -47.803 -54.715  0.00  0.00    +0.000 S 
ATOM     16  O   UNL     1     -68.747 -47.610 -53.948  0.00  0.00    +0.000 OA
BRANCH  15  17
ATOM     17  C   UNL     1     -67.875 -47.966 -56.486  0.00  0.00    +0.000 C 
BRANCH  17  21
ATOM     18  C   UNL     1     -64.474 -47.229 -60.319  0.00  0.00    +0.000 C 
ATOM     19  C   UNL     1     -65.309 -47.342 -59.103  0.00  0.00    +0.000 A 
ATOM     20  C   UNL     1     -66.587 -47.775 -58.836  0.00  0.00    +0.000 A 
ATOM     21  C   UNL     1     -66.739 -47.637 -57.426  0.00  0.00    +0.000 A 
ATOM     22  N   UNL     1     -65.614 -47.128 -56.895  0.00  0.00    +0.000 NA
ATOM     23  O   UNL     1     -64.727 -46.950 -57.940  0.00  0.00    +0.000 OA
ENDBRANCH  17  21
ENDBRANCH  15  17
ENDBRANCH   1  15
BRANCH  13  24
ATOM     24  C   UNL     1     -65.643 -48.921 -52.071  0.00  0.00    +0.000 C 
ATOM     25  O   UNL     1     -66.371 -48.583 -51.139  0.00  0.00    +0.000 OA
BRANCH  24  26
ATOM     26  C   UNL     1     -64.215 -48.379 -52.142  0.00  0.00    +0.000 C 
ATOM     27  C   UNL     1     -63.883 -47.839 -53.531  0.00  0.00    +0.000 C 
ATOM     28  C   UNL     1     -63.956 -47.307 -51.080  0.00  0.00    +0.000 C 
ENDBRANCH  24  26
ENDBRANCH  13  24
TORSDOF 5
