REMARK VINA RESULT:    -5.048     16.097     19.047
REMARK INTER + INTRA:          -7.084
REMARK INTER:                  -6.199
REMARK INTRA:                  -0.885
REMARK UNBOUND:                -0.856
REMARK  Name = 
REMARK  6 active torsions:
REMARK  status: ('A' for Active; 'I' for Inactive)
REMARK    1  A    between atoms: C_1  and  C_2
REMARK    2  A    between atoms: C_2  and  C_4
REMARK    3  A    between atoms: C_5  and  S_6
REMARK    4  A    between atoms: S_6  and  C_8
REMARK    5  A    between atoms: C_8  and  C_9
REMARK    6  A    between atoms: C_11  and  C_12
REMARK                            x       y       z     vdW  Elec       q    Type
REMARK                         _______ _______ _______ _____ _____    ______ ____
ROOT
ATOM      1  C   UNL     1     -66.448 -52.037 -53.124  0.00  0.00    +0.000 A 
ATOM      2  C   UNL     1     -67.394 -51.993 -54.088  0.00  0.00    +0.000 A 
ATOM      3  N   UNL     1     -67.496 -50.949 -54.987  0.00  0.00    +0.000 N 
ATOM      4  C   UNL     1     -66.699 -49.795 -54.917  0.00  0.00    +0.000 A 
ATOM      5  C   UNL     1     -66.817 -48.775 -55.876  0.00  0.00    +0.000 A 
ATOM      6 BR   UNL     1     -68.110 -48.887 -57.265  0.00  0.00    +0.000 Br
ATOM      7  C   UNL     1     -65.984 -47.655 -55.843  0.00  0.00    +0.000 A 
ATOM      8  C   UNL     1     -65.025 -47.540 -54.844  0.00  0.00    +0.000 A 
ATOM      9  C   UNL     1     -64.880 -48.543 -53.882  0.00  0.00    +0.000 A 
ATOM     10 CL   UNL     1     -63.665 -48.242 -52.687  0.00  0.00    +0.000 Cl
ATOM     11  C   UNL     1     -65.698 -49.690 -53.938  0.00  0.00    +0.000 A 
ATOM     12  C   UNL     1     -65.545 -50.835 -53.010  0.00  0.00    +0.000 A 
ATOM     13  O   UNL     1     -64.683 -50.799 -52.143  0.00  0.00    +0.000 OA
ATOM     14  H   UNL     1     -68.351 -50.883 -55.535  0.00  0.00    +0.000 HD
ENDROOT
BRANCH   1  16
ATOM     15  C   UNL     1     -66.841 -53.137 -50.803  0.00  0.00    +0.000 C 
ATOM     16  C   UNL     1     -66.221 -53.187 -52.179  0.00  0.00    +0.000 C 
ATOM     17  O   UNL     1     -65.520 -54.141 -52.490  0.00  0.00    +0.000 OA
ENDBRANCH   1  16
BRANCH   2  18
ATOM     18  S   UNL     1     -68.700 -53.274 -54.198  0.00  0.00    +0.000 S 
ATOM     19  O   UNL     1     -69.595 -52.980 -53.024  0.00  0.00    +0.000 OA
BRANCH  18  20
ATOM     20  C   UNL     1     -69.601 -52.680 -55.675  0.00  0.00    +0.000 C 
BRANCH  20  21
ATOM     21  C   UNL     1     -70.902 -52.037 -55.319  0.00  0.00    +0.000 A 
ATOM     22  C   UNL     1     -71.173 -50.675 -55.027  0.00  0.00    +0.000 A 
ATOM     23  C   UNL     1     -72.536 -50.621 -54.845  0.00  0.00    +0.000 A 
ATOM     24  C   UNL     1     -73.499 -49.549 -54.520  0.00  0.00    +0.000 C 
ATOM     25  O   UNL     1     -73.053 -51.868 -55.021  0.00  0.00    +0.000 OA
ATOM     26  N   UNL     1     -72.033 -52.754 -55.329  0.00  0.00    +0.000 NA
ENDBRANCH  20  21
ENDBRANCH  18  20
ENDBRANCH   2  18
TORSDOF 4
