REMARK VINA RESULT:    -7.770      0.000      0.000
REMARK INTER + INTRA:         -10.929
REMARK INTER:                 -10.042
REMARK INTRA:                  -0.887
REMARK UNBOUND:                -0.887
REMARK  Name = 
REMARK  8 active torsions:
REMARK  status: ('A' for Active; 'I' for Inactive)
REMARK    1  A    between atoms: C_1  and  C_2
REMARK    2  A    between atoms: C_4  and  C_5
REMARK    3  A    between atoms: C_5  and  S_6
REMARK    4  A    between atoms: S_6  and  C_8
REMARK    5  A    between atoms: C_20  and  C_21
REMARK    6  A    between atoms: C_21  and  C_23
REMARK    7  A    between atoms: C_23  and  C_24
REMARK    8  A    between atoms: C_23  and  C_25
REMARK                            x       y       z     vdW  Elec       q    Type
REMARK                         _______ _______ _______ _____ _____    ______ ____
ROOT
ATOM      1  C   UNL     1     -55.803 -41.573 -63.457  0.00  0.00    +0.000 A 
ATOM      2  N   UNL     1     -54.482 -41.214 -63.705  0.00  0.00    +0.000 N 
ATOM      3  C   UNL     1     -53.448 -42.170 -63.723  0.00  0.00    +0.000 A 
ATOM      4  C   UNL     1     -52.217 -41.930 -64.362  0.00  0.00    +0.000 A 
ATOM      5 BR   UNL     1     -51.939 -40.356 -65.384  0.00  0.00    +0.000 Br
ATOM      6  C   UNL     1     -51.179 -42.864 -64.298  0.00  0.00    +0.000 A 
ATOM      7  C   UNL     1     -51.358 -44.054 -63.598  0.00  0.00    +0.000 A 
ATOM      8  C   UNL     1     -52.583 -44.316 -62.958  0.00  0.00    +0.000 A 
ATOM      9 CL   UNL     1     -52.712 -45.854 -62.183  0.00  0.00    +0.000 Cl
ATOM     10  C   UNL     1     -53.628 -43.370 -63.017  0.00  0.00    +0.000 A 
ATOM     11  C   UNL     1     -54.944 -43.538 -62.349  0.00  0.00    +0.000 A 
ATOM     12  O   UNL     1     -55.051 -44.280 -61.377  0.00  0.00    +0.000 OA
ATOM     13  C   UNL     1     -56.139 -42.754 -62.885  0.00  0.00    +0.000 A 
ATOM     14  H   UNL     1     -54.380 -40.425 -64.359  0.00  0.00    +0.000 HD
ENDROOT
BRANCH   1  15
ATOM     15  S   UNL     1     -56.975 -40.369 -64.189  0.00  0.00    +0.000 S 
ATOM     16  O   UNL     1     -57.725 -39.830 -63.001  0.00  0.00    +0.000 OA
BRANCH  15  17
ATOM     17  C   UNL     1     -58.108 -41.422 -65.157  0.00  0.00    +0.000 C 
BRANCH  17  21
ATOM     18  C   UNL     1     -55.689 -42.887 -69.494  0.00  0.00    +0.000 C 
ATOM     19  C   UNL     1     -56.424 -42.669 -68.228  0.00  0.00    +0.000 A 
ATOM     20  C   UNL     1     -56.638 -41.592 -67.400  0.00  0.00    +0.000 A 
ATOM     21  C   UNL     1     -57.475 -42.087 -66.358  0.00  0.00    +0.000 A 
ATOM     22  N   UNL     1     -57.721 -43.394 -66.553  0.00  0.00    +0.000 NA
ATOM     23  O   UNL     1     -57.069 -43.750 -67.719  0.00  0.00    +0.000 OA
ENDBRANCH  17  21
ENDBRANCH  15  17
ENDBRANCH   1  15
BRANCH  13  24
ATOM     24  C   UNL     1     -57.497 -43.404 -62.744  0.00  0.00    +0.000 C 
ATOM     25  O   UNL     1     -57.795 -44.372 -63.442  0.00  0.00    +0.000 OA
BRANCH  24  26
ATOM     26  C   UNL     1     -58.535 -42.824 -61.781  0.00  0.00    +0.000 C 
ATOM     27  C   UNL     1     -59.663 -43.814 -61.502  0.00  0.00    +0.000 C 
ATOM     28  C   UNL     1     -57.900 -42.358 -60.468  0.00  0.00    +0.000 C 
ENDBRANCH  24  26
ENDBRANCH  13  24
TORSDOF 5
