REMARK VINA RESULT:    -6.330      2.951      4.116
REMARK INTER + INTRA:          -9.092
REMARK INTER:                  -8.091
REMARK INTRA:                  -1.000
REMARK UNBOUND:                -0.911
REMARK  Name = 
REMARK  6 active torsions:
REMARK  status: ('A' for Active; 'I' for Inactive)
REMARK    1  A    between atoms: C_1  and  C_2
REMARK    2  A    between atoms: C_4  and  C_5
REMARK    3  A    between atoms: C_5  and  S_6
REMARK    4  A    between atoms: S_6  and  C_8
REMARK    5  A    between atoms: C_20  and  C_21
REMARK    6  A    between atoms: C_21  and  C_23
REMARK                            x       y       z     vdW  Elec       q    Type
REMARK                         _______ _______ _______ _____ _____    ______ ____
ROOT
ATOM      1  C   UNL     1     -55.449 -43.836 -77.303  0.00  0.00    +0.000 A 
ATOM      2  N   UNL     1     -54.158 -43.896 -76.745  0.00  0.00    +0.000 N 
ATOM      3  C   UNL     1     -53.377 -42.716 -76.600  0.00  0.00    +0.000 A 
ATOM      4  C   UNL     1     -52.279 -42.625 -75.724  0.00  0.00    +0.000 A 
ATOM      5 BR   UNL     1     -51.865 -44.034 -74.524  0.00  0.00    +0.000 Br
ATOM      6  C   UNL     1     -51.469 -41.481 -75.693  0.00  0.00    +0.000 A 
ATOM      7  C   UNL     1     -51.770 -40.397 -76.525  0.00  0.00    +0.000 A 
ATOM      8  C   UNL     1     -52.854 -40.463 -77.401  0.00  0.00    +0.000 A 
ATOM      9 CL   UNL     1     -53.184 -39.047 -78.332  0.00  0.00    +0.000 Cl
ATOM     10  C   UNL     1     -53.635 -41.628 -77.448  0.00  0.00    +0.000 A 
ATOM     11  C   UNL     1     -54.746 -41.823 -78.400  0.00  0.00    +0.000 A 
ATOM     12  O   UNL     1     -54.747 -41.298 -79.506  0.00  0.00    +0.000 OA
ATOM     13  C   UNL     1     -55.854 -42.755 -78.007  0.00  0.00    +0.000 A 
ATOM     14  H   UNL     1     -54.114 -44.525 -75.932  0.00  0.00    +0.000 HD
ENDROOT
BRANCH   1  15
ATOM     15  S   UNL     1     -56.566 -45.083 -76.609  0.00  0.00    +0.000 S 
ATOM     16  O   UNL     1     -55.645 -46.140 -76.063  0.00  0.00    +0.000 OA
BRANCH  15  17
ATOM     17  C   UNL     1     -57.533 -45.843 -77.947  0.00  0.00    +0.000 C 
BRANCH  17  21
ATOM     18  C   UNL     1     -62.588 -45.046 -78.109  0.00  0.00    +0.000 C 
ATOM     19  C   UNL     1     -61.180 -45.483 -78.068  0.00  0.00    +0.000 A 
ATOM     20  C   UNL     1     -59.966 -44.838 -78.101  0.00  0.00    +0.000 A 
ATOM     21  C   UNL     1     -59.013 -45.867 -77.927  0.00  0.00    +0.000 A 
ATOM     22  N   UNL     1     -59.619 -47.065 -77.865  0.00  0.00    +0.000 NA
ATOM     23  O   UNL     1     -60.974 -46.819 -77.952  0.00  0.00    +0.000 OA
ENDBRANCH  17  21
ENDBRANCH  15  17
ENDBRANCH   1  15
BRANCH  13  24
ATOM     24  C   UNL     1     -57.215 -42.232 -78.314  0.00  0.00    +0.000 C 
ATOM     25  O   UNL     1     -57.738 -42.461 -79.391  0.00  0.00    +0.000 OA
BRANCH  24  26
ATOM     26  C   UNL     1     -57.937 -41.474 -77.275  0.00  0.00    +0.000 C 
ATOM     27  C   UNL     1     -58.948 -40.433 -77.684  0.00  0.00    +0.000 C 
ATOM     28  C   UNL     1     -57.662 -40.007 -77.043  0.00  0.00    +0.000 C 
ENDBRANCH  24  26
ENDBRANCH  13  24
TORSDOF 5
