REMARK VINA RESULT:    -6.739     12.796     15.164
REMARK INTER + INTRA:          -9.666
REMARK INTER:                  -8.989
REMARK INTRA:                  -0.677
REMARK UNBOUND:                -0.957
REMARK  Name = 
REMARK  6 active torsions:
REMARK  status: ('A' for Active; 'I' for Inactive)
REMARK    1  A    between atoms: C_1  and  C_2
REMARK    2  A    between atoms: C_4  and  C_5
REMARK    3  A    between atoms: C_5  and  S_6
REMARK    4  A    between atoms: S_6  and  C_8
REMARK    5  A    between atoms: C_20  and  C_21
REMARK    6  A    between atoms: C_21  and  C_23
REMARK                            x       y       z     vdW  Elec       q    Type
REMARK                         _______ _______ _______ _____ _____    ______ ____
ROOT
ATOM      1  C   UNL     1     -54.185 -42.458 -78.245  0.00  0.00    +0.000 A 
ATOM      2  N   UNL     1     -53.984 -43.070 -76.993  0.00  0.00    +0.000 N 
ATOM      3  C   UNL     1     -54.250 -44.455 -76.814  0.00  0.00    +0.000 A 
ATOM      4  C   UNL     1     -53.721 -45.207 -75.748  0.00  0.00    +0.000 A 
ATOM      5 BR   UNL     1     -52.451 -44.456 -74.555  0.00  0.00    +0.000 Br
ATOM      6  C   UNL     1     -54.096 -46.543 -75.546  0.00  0.00    +0.000 A 
ATOM      7  C   UNL     1     -54.991 -47.152 -76.433  0.00  0.00    +0.000 A 
ATOM      8  C   UNL     1     -55.527 -46.427 -77.497  0.00  0.00    +0.000 A 
ATOM      9 CL   UNL     1     -56.565 -47.290 -78.575  0.00  0.00    +0.000 Cl
ATOM     10  C   UNL     1     -55.171 -45.081 -77.668  0.00  0.00    +0.000 A 
ATOM     11  C   UNL     1     -55.751 -44.213 -78.711  0.00  0.00    +0.000 A 
ATOM     12  O   UNL     1     -56.890 -44.379 -79.128  0.00  0.00    +0.000 OA
ATOM     13  C   UNL     1     -54.929 -43.057 -79.201  0.00  0.00    +0.000 A 
ATOM     14  H   UNL     1     -53.116 -42.753 -76.539  0.00  0.00    +0.000 HD
ENDROOT
BRANCH   1  15
ATOM     15  S   UNL     1     -53.022 -41.102 -78.553  0.00  0.00    +0.000 S 
ATOM     16  O   UNL     1     -51.698 -41.789 -78.747  0.00  0.00    +0.000 OA
BRANCH  15  17
ATOM     17  C   UNL     1     -52.886 -40.070 -77.064  0.00  0.00    +0.000 C 
BRANCH  17  21
ATOM     18  C   UNL     1     -48.633 -38.582 -74.632  0.00  0.00    +0.000 C 
ATOM     19  C   UNL     1     -49.817 -39.204 -75.253  0.00  0.00    +0.000 A 
ATOM     20  C   UNL     1     -50.887 -38.736 -75.979  0.00  0.00    +0.000 A 
ATOM     21  C   UNL     1     -51.603 -39.897 -76.346  0.00  0.00    +0.000 A 
ATOM     22  N   UNL     1     -51.033 -40.991 -75.809  0.00  0.00    +0.000 NA
ATOM     23  O   UNL     1     -49.917 -40.552 -75.129  0.00  0.00    +0.000 OA
ENDBRANCH  17  21
ENDBRANCH  15  17
ENDBRANCH   1  15
BRANCH  13  24
ATOM     24  C   UNL     1     -54.952 -42.891 -80.682  0.00  0.00    +0.000 C 
ATOM     25  O   UNL     1     -54.433 -43.721 -81.407  0.00  0.00    +0.000 OA
BRANCH  24  26
ATOM     26  C   UNL     1     -55.656 -41.728 -81.256  0.00  0.00    +0.000 C 
ATOM     27  C   UNL     1     -55.489 -41.409 -82.719  0.00  0.00    +0.000 C 
ATOM     28  C   UNL     1     -54.903 -40.493 -81.689  0.00  0.00    +0.000 C 
ENDBRANCH  24  26
ENDBRANCH  13  24
TORSDOF 5
