REMARK VINA RESULT:    -5.891     13.744     15.083
REMARK INTER + INTRA:          -8.072
REMARK INTER:                  -7.390
REMARK INTRA:                  -0.682
REMARK UNBOUND:                -0.804
REMARK  Name = 
REMARK  6 active torsions:
REMARK  status: ('A' for Active; 'I' for Inactive)
REMARK    1  A    between atoms: C_1  and  C_2
REMARK    2  A    between atoms: C_2  and  C_4
REMARK    3  A    between atoms: C_5  and  S_6
REMARK    4  A    between atoms: S_6  and  C_8
REMARK    5  A    between atoms: C_8  and  C_9
REMARK    6  A    between atoms: C_11  and  C_12
REMARK                            x       y       z     vdW  Elec       q    Type
REMARK                         _______ _______ _______ _____ _____    ______ ____
ROOT
ATOM      1  C   UNL     1     -57.140 -42.018 -78.629  0.00  0.00    +0.000 A 
ATOM      2  C   UNL     1     -56.758 -42.434 -77.402  0.00  0.00    +0.000 A 
ATOM      3  N   UNL     1     -55.438 -42.507 -77.007  0.00  0.00    +0.000 N 
ATOM      4  C   UNL     1     -54.363 -42.220 -77.862  0.00  0.00    +0.000 A 
ATOM      5  C   UNL     1     -53.040 -42.229 -77.385  0.00  0.00    +0.000 A 
ATOM      6 BR   UNL     1     -52.653 -42.698 -75.585  0.00  0.00    +0.000 Br
ATOM      7  C   UNL     1     -51.976 -41.879 -78.213  0.00  0.00    +0.000 A 
ATOM      8  C   UNL     1     -52.222 -41.517 -79.534  0.00  0.00    +0.000 A 
ATOM      9  C   UNL     1     -53.531 -41.480 -80.027  0.00  0.00    +0.000 A 
ATOM     10 CL   UNL     1     -53.682 -41.006 -81.684  0.00  0.00    +0.000 Cl
ATOM     11  C   UNL     1     -54.610 -41.806 -79.183  0.00  0.00    +0.000 A 
ATOM     12  C   UNL     1     -56.033 -41.759 -79.617  0.00  0.00    +0.000 A 
ATOM     13  O   UNL     1     -56.312 -41.546 -80.791  0.00  0.00    +0.000 OA
ATOM     14  H   UNL     1     -55.235 -43.129 -76.226  0.00  0.00    +0.000 HD
ENDROOT
BRANCH   1  16
ATOM     15  C   UNL     1     -59.254 -42.961 -79.791  0.00  0.00    +0.000 C 
ATOM     16  C   UNL     1     -58.561 -41.827 -79.071  0.00  0.00    +0.000 C 
ATOM     17  O   UNL     1     -59.159 -40.763 -78.893  0.00  0.00    +0.000 OA
ENDBRANCH   1  16
BRANCH   2  18
ATOM     18  S   UNL     1     -57.977 -43.066 -76.194  0.00  0.00    +0.000 S 
ATOM     19  O   UNL     1     -57.131 -43.827 -75.208  0.00  0.00    +0.000 OA
BRANCH  18  20
ATOM     20  C   UNL     1     -58.413 -41.493 -75.371  0.00  0.00    +0.000 C 
BRANCH  20  21
ATOM     21  C   UNL     1     -58.007 -41.481 -73.935  0.00  0.00    +0.000 A 
ATOM     22  C   UNL     1     -56.748 -41.164 -73.366  0.00  0.00    +0.000 A 
ATOM     23  C   UNL     1     -56.956 -41.220 -72.010  0.00  0.00    +0.000 A 
ATOM     24  C   UNL     1     -56.110 -40.995 -70.824  0.00  0.00    +0.000 C 
ATOM     25  O   UNL     1     -58.253 -41.553 -71.774  0.00  0.00    +0.000 OA
ATOM     26  N   UNL     1     -58.918 -41.711 -72.978  0.00  0.00    +0.000 NA
ENDBRANCH  20  21
ENDBRANCH  18  20
ENDBRANCH   2  18
TORSDOF 4
