REMARK VINA RESULT:    -4.839     19.191     21.091
REMARK INTER + INTRA:          -7.052
REMARK INTER:                  -6.175
REMARK INTRA:                  -0.877
REMARK UNBOUND:                -1.082
REMARK  Name = 
REMARK  6 active torsions:
REMARK  status: ('A' for Active; 'I' for Inactive)
REMARK    1  A    between atoms: C_1  and  C_2
REMARK    2  A    between atoms: C_2  and  C_4
REMARK    3  A    between atoms: C_5  and  S_6
REMARK    4  A    between atoms: S_6  and  C_8
REMARK    5  A    between atoms: C_8  and  C_9
REMARK    6  A    between atoms: C_11  and  C_12
REMARK                            x       y       z     vdW  Elec       q    Type
REMARK                         _______ _______ _______ _____ _____    ______ ____
ROOT
ATOM      1  C   UNL     1     -50.994 -43.672 -84.957  0.00  0.00    +0.000 A 
ATOM      2  C   UNL     1     -51.536 -44.837 -84.540  0.00  0.00    +0.000 A 
ATOM      3  N   UNL     1     -50.885 -46.052 -84.620  0.00  0.00    +0.000 N 
ATOM      4  C   UNL     1     -49.657 -46.215 -85.280  0.00  0.00    +0.000 A 
ATOM      5  C   UNL     1     -49.054 -47.483 -85.376  0.00  0.00    +0.000 A 
ATOM      6 BR   UNL     1     -49.921 -49.031 -84.695  0.00  0.00    +0.000 Br
ATOM      7  C   UNL     1     -47.811 -47.643 -85.981  0.00  0.00    +0.000 A 
ATOM      8  C   UNL     1     -47.146 -46.531 -86.489  0.00  0.00    +0.000 A 
ATOM      9  C   UNL     1     -47.714 -45.254 -86.386  0.00  0.00    +0.000 A 
ATOM     10 CL   UNL     1     -46.774 -43.976 -87.073  0.00  0.00    +0.000 Cl
ATOM     11  C   UNL     1     -48.967 -45.089 -85.763  0.00  0.00    +0.000 A 
ATOM     12  C   UNL     1     -49.637 -43.767 -85.611  0.00  0.00    +0.000 A 
ATOM     13  O   UNL     1     -49.107 -42.759 -86.055  0.00  0.00    +0.000 OA
ATOM     14  H   UNL     1     -51.492 -46.875 -84.621  0.00  0.00    +0.000 HD
ENDROOT
BRANCH   1  16
ATOM     15  C   UNL     1     -51.238 -41.370 -83.761  0.00  0.00    +0.000 C 
ATOM     16  C   UNL     1     -51.665 -42.326 -84.851  0.00  0.00    +0.000 C 
ATOM     17  O   UNL     1     -52.565 -41.990 -85.623  0.00  0.00    +0.000 OA
ENDBRANCH   1  16
BRANCH   2  18
ATOM     18  S   UNL     1     -53.267 -44.929 -83.976  0.00  0.00    +0.000 S 
ATOM     19  O   UNL     1     -53.610 -46.387 -84.138  0.00  0.00    +0.000 OA
BRANCH  18  20
ATOM     20  C   UNL     1     -53.012 -44.670 -82.183  0.00  0.00    +0.000 C 
BRANCH  20  21
ATOM     21  C   UNL     1     -53.450 -43.313 -81.737  0.00  0.00    +0.000 A 
ATOM     22  C   UNL     1     -53.006 -42.521 -80.646  0.00  0.00    +0.000 A 
ATOM     23  C   UNL     1     -53.757 -41.374 -80.721  0.00  0.00    +0.000 A 
ATOM     24  C   UNL     1     -53.874 -40.158 -79.895  0.00  0.00    +0.000 C 
ATOM     25  O   UNL     1     -54.564 -41.443 -81.812  0.00  0.00    +0.000 OA
ATOM     26  N   UNL     1     -54.370 -42.651 -82.456  0.00  0.00    +0.000 NA
ENDBRANCH  20  21
ENDBRANCH  18  20
ENDBRANCH   2  18
TORSDOF 4
