REMARK VINA RESULT:    -6.712      0.000      0.000
REMARK INTER + INTRA:          -9.018
REMARK INTER:                  -8.282
REMARK INTRA:                  -0.736
REMARK UNBOUND:                -0.736
REMARK  Name = 
REMARK  6 active torsions:
REMARK  status: ('A' for Active; 'I' for Inactive)
REMARK    1  A    between atoms: C_1  and  C_2
REMARK    2  A    between atoms: C_2  and  C_4
REMARK    3  A    between atoms: C_5  and  S_6
REMARK    4  A    between atoms: S_6  and  C_8
REMARK    5  A    between atoms: C_8  and  C_9
REMARK    6  A    between atoms: C_11  and  C_12
REMARK                            x       y       z     vdW  Elec       q    Type
REMARK                         _______ _______ _______ _____ _____    ______ ____
ROOT
ATOM      1  C   UNL     1     -53.833 -41.291 -78.187  0.00  0.00    +0.000 A 
ATOM      2  C   UNL     1     -54.731 -42.301 -78.160  0.00  0.00    +0.000 A 
ATOM      3  N   UNL     1     -54.742 -43.276 -77.178  0.00  0.00    +0.000 N 
ATOM      4  C   UNL     1     -53.656 -43.454 -76.302  0.00  0.00    +0.000 A 
ATOM      5  C   UNL     1     -53.571 -44.585 -75.472  0.00  0.00    +0.000 A 
ATOM      6 BR   UNL     1     -54.886 -45.953 -75.551  0.00  0.00    +0.000 Br
ATOM      7  C   UNL     1     -52.511 -44.740 -74.582  0.00  0.00    +0.000 A 
ATOM      8  C   UNL     1     -51.524 -43.759 -74.510  0.00  0.00    +0.000 A 
ATOM      9  C   UNL     1     -51.604 -42.610 -75.307  0.00  0.00    +0.000 A 
ATOM     10 CL   UNL     1     -50.287 -41.501 -75.176  0.00  0.00    +0.000 Cl
ATOM     11  C   UNL     1     -52.688 -42.442 -76.184  0.00  0.00    +0.000 A 
ATOM     12  C   UNL     1     -52.899 -41.223 -77.011  0.00  0.00    +0.000 A 
ATOM     13  O   UNL     1     -52.360 -40.163 -76.718  0.00  0.00    +0.000 OA
ATOM     14  H   UNL     1     -55.190 -44.149 -77.465  0.00  0.00    +0.000 HD
ENDROOT
BRANCH   1  16
ATOM     15  C   UNL     1     -54.137 -38.829 -78.991  0.00  0.00    +0.000 C 
ATOM     16  C   UNL     1     -53.717 -40.259 -79.274  0.00  0.00    +0.000 C 
ATOM     17  O   UNL     1     -53.289 -40.558 -80.386  0.00  0.00    +0.000 OA
ENDBRANCH   1  16
BRANCH   2  18
ATOM     18  S   UNL     1     -55.935 -42.558 -79.506  0.00  0.00    +0.000 S 
ATOM     19  O   UNL     1     -56.435 -43.955 -79.258  0.00  0.00    +0.000 OA
BRANCH  18  20
ATOM     20  C   UNL     1     -57.243 -41.424 -78.893  0.00  0.00    +0.000 C 
BRANCH  20  21
ATOM     21  C   UNL     1     -57.418 -41.421 -77.408  0.00  0.00    +0.000 A 
ATOM     22  C   UNL     1     -57.257 -40.382 -76.455  0.00  0.00    +0.000 A 
ATOM     23  C   UNL     1     -57.661 -40.935 -75.264  0.00  0.00    +0.000 A 
ATOM     24  C   UNL     1     -57.773 -40.446 -73.876  0.00  0.00    +0.000 C 
ATOM     25  O   UNL     1     -58.044 -42.220 -75.479  0.00  0.00    +0.000 OA
ATOM     26  N   UNL     1     -57.899 -42.528 -76.818  0.00  0.00    +0.000 NA
ENDBRANCH  20  21
ENDBRANCH  18  20
ENDBRANCH   2  18
TORSDOF 4
