MODEL 1
REMARK VINA RESULT:    -7.095      0.000      0.000
REMARK INTER + INTRA:         -10.070
REMARK INTER:                  -9.169
REMARK INTRA:                  -0.901
REMARK UNBOUND:                -0.901
REMARK  Name = 
REMARK  6 active torsions:
REMARK  status: ('A' for Active; 'I' for Inactive)
REMARK    1  A    between atoms: C_1  and  C_2
REMARK    2  A    between atoms: C_4  and  C_5
REMARK    3  A    between atoms: C_5  and  S_6
REMARK    4  A    between atoms: S_6  and  C_8
REMARK    5  A    between atoms: C_20  and  C_21
REMARK    6  A    between atoms: C_21  and  C_23
REMARK                            x       y       z     vdW  Elec       q    Type
REMARK                         _______ _______ _______ _____ _____    ______ ____
ROOT
ATOM      1  C   UNL     1     -55.522 -42.040 -63.101  0.00  0.00    +0.000 A 
ATOM      2  N   UNL     1     -54.727 -43.203 -63.108  0.00  0.00    +0.000 N 
ATOM      3  C   UNL     1     -53.342 -43.130 -63.422  0.00  0.00    +0.000 A 
ATOM      4  C   UNL     1     -52.424 -44.140 -63.079  0.00  0.00    +0.000 A 
ATOM      5 BR   UNL     1     -52.943 -45.611 -62.000  0.00  0.00    +0.000 Br
ATOM      6  C   UNL     1     -51.089 -44.080 -63.503  0.00  0.00    +0.000 A 
ATOM      7  C   UNL     1     -50.650 -42.986 -64.258  0.00  0.00    +0.000 A 
ATOM      8  C   UNL     1     -51.542 -41.972 -64.608  0.00  0.00    +0.000 A 
ATOM      9 CL   UNL     1     -50.886 -40.633 -65.478  0.00  0.00    +0.000 Cl
ATOM     10  C   UNL     1     -52.884 -42.062 -64.208  0.00  0.00    +0.000 A 
ATOM     11  C   UNL     1     -53.916 -41.084 -64.603  0.00  0.00    +0.000 A 
ATOM     12  O   UNL     1     -53.858 -40.478 -65.665  0.00  0.00    +0.000 OA
ATOM     13  C   UNL     1     -55.098 -40.903 -63.696  0.00  0.00    +0.000 A 
ATOM     14  H   UNL     1     -54.941 -43.826 -62.318  0.00  0.00    +0.000 HD
ENDROOT
BRANCH   1  15
ATOM     15  S   UNL     1     -56.861 -42.120 -61.882  0.00  0.00    +0.000 S 
ATOM     16  O   UNL     1     -56.576 -43.373 -61.101  0.00  0.00    +0.000 OA
BRANCH  15  17
ATOM     17  C   UNL     1     -58.446 -42.361 -62.738  0.00  0.00    +0.000 C 
BRANCH  17  21
ATOM     18  C   UNL     1     -58.286 -43.044 -67.810  0.00  0.00    +0.000 C 
ATOM     19  C   UNL     1     -58.496 -42.716 -66.387  0.00  0.00    +0.000 A 
ATOM     20  C   UNL     1     -57.950 -43.154 -65.204  0.00  0.00    +0.000 A 
ATOM     21  C   UNL     1     -58.549 -42.342 -64.215  0.00  0.00    +0.000 A 
ATOM     22  N   UNL     1     -59.453 -41.514 -64.769  0.00  0.00    +0.000 NA
ATOM     23  O   UNL     1     -59.414 -41.752 -66.127  0.00  0.00    +0.000 OA
ENDBRANCH  17  21
ENDBRANCH  15  17
ENDBRANCH   1  15
BRANCH  13  24
ATOM     24  C   UNL     1     -55.478 -39.478 -63.484  0.00  0.00    +0.000 C 
ATOM     25  O   UNL     1     -56.633 -39.117 -63.628  0.00  0.00    +0.000 OA
BRANCH  24  26
ATOM     26  C   UNL     1     -54.442 -38.522 -63.050  0.00  0.00    +0.000 C 
ATOM     27  C   UNL     1     -54.826 -37.094 -62.760  0.00  0.00    +0.000 C 
ATOM     28  C   UNL     1     -53.978 -37.406 -63.955  0.00  0.00    +0.000 C 
ENDBRANCH  24  26
ENDBRANCH  13  24
TORSDOF 5
ENDMDL
MODEL 2
REMARK VINA RESULT:    -6.728     11.060     13.244
REMARK INTER + INTRA:          -9.596
REMARK INTER:                  -9.159
REMARK INTRA:                  -0.438
REMARK UNBOUND:                -0.901
REMARK  Name = 
REMARK  6 active torsions:
REMARK  status: ('A' for Active; 'I' for Inactive)
REMARK    1  A    between atoms: C_1  and  C_2
REMARK    2  A    between atoms: C_4  and  C_5
REMARK    3  A    between atoms: C_5  and  S_6
REMARK    4  A    between atoms: S_6  and  C_8
REMARK    5  A    between atoms: C_20  and  C_21
REMARK    6  A    between atoms: C_21  and  C_23
REMARK                            x       y       z     vdW  Elec       q    Type
REMARK                         _______ _______ _______ _____ _____    ______ ____
ROOT
ATOM      1  C   UNL     1     -55.364 -42.490 -77.170  0.00  0.00    +0.000 A 
ATOM      2  N   UNL     1     -54.768 -41.217 -77.076  0.00  0.00    +0.000 N 
ATOM      3  C   UNL     1     -53.400 -41.085 -76.710  0.00  0.00    +0.000 A 
ATOM      4  C   UNL     1     -52.646 -39.925 -76.968  0.00  0.00    +0.000 A 
ATOM      5 BR   UNL     1     -53.360 -38.500 -77.997  0.00  0.00    +0.000 Br
ATOM      6  C   UNL     1     -51.333 -39.793 -76.493  0.00  0.00    +0.000 A 
ATOM      7  C   UNL     1     -50.749 -40.842 -75.774  0.00  0.00    +0.000 A 
ATOM      8  C   UNL     1     -51.476 -42.002 -75.508  0.00  0.00    +0.000 A 
ATOM      9 CL   UNL     1     -50.642 -43.265 -74.676  0.00  0.00    +0.000 Cl
ATOM     10  C   UNL     1     -52.801 -42.107 -75.957  0.00  0.00    +0.000 A 
ATOM     11  C   UNL     1     -53.675 -43.256 -75.651  0.00  0.00    +0.000 A 
ATOM     12  O   UNL     1     -53.554 -43.900 -74.617  0.00  0.00    +0.000 OA
ATOM     13  C   UNL     1     -54.782 -43.574 -76.612  0.00  0.00    +0.000 A 
ATOM     14  H   UNL     1     -55.054 -40.595 -77.844  0.00  0.00    +0.000 HD
ENDROOT
BRANCH   1  15
ATOM     15  S   UNL     1     -56.659 -42.560 -78.437  0.00  0.00    +0.000 S 
ATOM     16  O   UNL     1     -56.215 -41.564 -79.473  0.00  0.00    +0.000 OA
BRANCH  15  17
ATOM     17  C   UNL     1     -58.224 -41.957 -77.738  0.00  0.00    +0.000 C 
BRANCH  17  21
ATOM     18  C   UNL     1     -58.936 -41.367 -72.702  0.00  0.00    +0.000 C 
ATOM     19  C   UNL     1     -58.611 -41.361 -74.141  0.00  0.00    +0.000 A 
ATOM     20  C   UNL     1     -58.860 -42.212 -75.192  0.00  0.00    +0.000 A 
ATOM     21  C   UNL     1     -58.340 -41.542 -76.321  0.00  0.00    +0.000 A 
ATOM     22  N   UNL     1     -57.752 -40.389 -75.957  0.00  0.00    +0.000 NA
ATOM     23  O   UNL     1     -57.925 -40.281 -74.593  0.00  0.00    +0.000 OA
ENDBRANCH  17  21
ENDBRANCH  15  17
ENDBRANCH   1  15
BRANCH  13  24
ATOM     24  C   UNL     1     -54.921 -45.029 -76.907  0.00  0.00    +0.000 C 
ATOM     25  O   UNL     1     -54.643 -45.467 -78.009  0.00  0.00    +0.000 OA
BRANCH  24  26
ATOM     26  C   UNL     1     -55.354 -45.935 -75.826  0.00  0.00    +0.000 C 
ATOM     27  C   UNL     1     -54.459 -47.075 -75.412  0.00  0.00    +0.000 C 
ATOM     28  C   UNL     1     -55.751 -47.363 -76.114  0.00  0.00    +0.000 C 
ENDBRANCH  24  26
ENDBRANCH  13  24
TORSDOF 5
ENDMDL
MODEL 3
REMARK VINA RESULT:    -6.700      2.979      5.959
REMARK INTER + INTRA:          -9.560
REMARK INTER:                  -9.018
REMARK INTRA:                  -0.542
REMARK UNBOUND:                -0.901
REMARK  Name = 
REMARK  6 active torsions:
REMARK  status: ('A' for Active; 'I' for Inactive)
REMARK    1  A    between atoms: C_1  and  C_2
REMARK    2  A    between atoms: C_4  and  C_5
REMARK    3  A    between atoms: C_5  and  S_6
REMARK    4  A    between atoms: S_6  and  C_8
REMARK    5  A    between atoms: C_20  and  C_21
REMARK    6  A    between atoms: C_21  and  C_23
REMARK                            x       y       z     vdW  Elec       q    Type
REMARK                         _______ _______ _______ _____ _____    ______ ____
ROOT
ATOM      1  C   UNL     1     -55.533 -41.362 -62.693  0.00  0.00    +0.000 A 
ATOM      2  N   UNL     1     -55.974 -40.580 -61.608  0.00  0.00    +0.000 N 
ATOM      3  C   UNL     1     -56.320 -39.214 -61.794  0.00  0.00    +0.000 A 
ATOM      4  C   UNL     1     -57.118 -38.493 -60.885  0.00  0.00    +0.000 A 
ATOM      5 BR   UNL     1     -57.948 -39.355 -59.414  0.00  0.00    +0.000 Br
ATOM      6  C   UNL     1     -57.344 -37.120 -61.050  0.00  0.00    +0.000 A 
ATOM      7  C   UNL     1     -56.793 -36.454 -62.151  0.00  0.00    +0.000 A 
ATOM      8  C   UNL     1     -56.001 -37.148 -63.066  0.00  0.00    +0.000 A 
ATOM      9 CL   UNL     1     -55.427 -36.253 -64.427  0.00  0.00    +0.000 Cl
ATOM     10  C   UNL     1     -55.752 -38.515 -62.870  0.00  0.00    +0.000 A 
ATOM     11  C   UNL     1     -54.860 -39.311 -63.735  0.00  0.00    +0.000 A 
ATOM     12  O   UNL     1     -53.898 -38.809 -64.304  0.00  0.00    +0.000 OA
ATOM     13  C   UNL     1     -55.114 -40.785 -63.841  0.00  0.00    +0.000 A 
ATOM     14  H   UNL     1     -56.625 -41.093 -60.997  0.00  0.00    +0.000 HD
ENDROOT
BRANCH   1  15
ATOM     15  S   UNL     1     -56.011 -43.103 -62.537  0.00  0.00    +0.000 S 
ATOM     16  O   UNL     1     -57.169 -43.084 -61.576  0.00  0.00    +0.000 OA
BRANCH  15  17
ATOM     17  C   UNL     1     -54.665 -44.033 -61.746  0.00  0.00    +0.000 C 
BRANCH  17  21
ATOM     18  C   UNL     1     -50.323 -44.614 -64.397  0.00  0.00    +0.000 C 
ATOM     19  C   UNL     1     -51.555 -44.655 -63.588  0.00  0.00    +0.000 A 
ATOM     20  C   UNL     1     -52.457 -43.713 -63.153  0.00  0.00    +0.000 A 
ATOM     21  C   UNL     1     -53.462 -44.459 -62.498  0.00  0.00    +0.000 A 
ATOM     22  N   UNL     1     -53.143 -45.765 -62.480  0.00  0.00    +0.000 NA
ATOM     23  O   UNL     1     -51.951 -45.882 -63.165  0.00  0.00    +0.000 OA
ENDBRANCH  17  21
ENDBRANCH  15  17
ENDBRANCH   1  15
BRANCH  13  24
ATOM     24  C   UNL     1     -55.023 -41.311 -65.232  0.00  0.00    +0.000 C 
ATOM     25  O   UNL     1     -53.970 -41.263 -65.845  0.00  0.00    +0.000 OA
BRANCH  24  26
ATOM     26  C   UNL     1     -56.216 -41.933 -65.837  0.00  0.00    +0.000 C 
ATOM     27  C   UNL     1     -56.394 -41.896 -67.333  0.00  0.00    +0.000 C 
ATOM     28  C   UNL     1     -57.307 -41.094 -66.457  0.00  0.00    +0.000 C 
ENDBRANCH  24  26
ENDBRANCH  13  24
TORSDOF 5
ENDMDL
MODEL 4
REMARK VINA RESULT:    -6.634     11.635     13.630
REMARK INTER + INTRA:          -9.474
REMARK INTER:                  -8.589
REMARK INTRA:                  -0.885
REMARK UNBOUND:                -0.901
REMARK  Name = 
REMARK  6 active torsions:
REMARK  status: ('A' for Active; 'I' for Inactive)
REMARK    1  A    between atoms: C_1  and  C_2
REMARK    2  A    between atoms: C_4  and  C_5
REMARK    3  A    between atoms: C_5  and  S_6
REMARK    4  A    between atoms: S_6  and  C_8
REMARK    5  A    between atoms: C_20  and  C_21
REMARK    6  A    between atoms: C_21  and  C_23
REMARK                            x       y       z     vdW  Elec       q    Type
REMARK                         _______ _______ _______ _____ _____    ______ ____
ROOT
ATOM      1  C   UNL     1     -57.509 -43.105 -77.330  0.00  0.00    +0.000 A 
ATOM      2  N   UNL     1     -57.123 -44.426 -77.631  0.00  0.00    +0.000 N 
ATOM      3  C   UNL     1     -56.073 -45.055 -76.907  0.00  0.00    +0.000 A 
ATOM      4  C   UNL     1     -55.895 -46.451 -76.871  0.00  0.00    +0.000 A 
ATOM      5 BR   UNL     1     -57.166 -47.621 -77.654  0.00  0.00    +0.000 Br
ATOM      6  C   UNL     1     -54.784 -47.024 -76.236  0.00  0.00    +0.000 A 
ATOM      7  C   UNL     1     -53.848 -46.200 -75.602  0.00  0.00    +0.000 A 
ATOM      8  C   UNL     1     -54.005 -44.814 -75.622  0.00  0.00    +0.000 A 
ATOM      9 CL   UNL     1     -52.835 -43.890 -74.749  0.00  0.00    +0.000 Cl
ATOM     10  C   UNL     1     -55.102 -44.251 -76.291  0.00  0.00    +0.000 A 
ATOM     11  C   UNL     1     -55.305 -42.797 -76.439  0.00  0.00    +0.000 A 
ATOM     12  O   UNL     1     -54.363 -42.016 -76.494  0.00  0.00    +0.000 OA
ATOM     13  C   UNL     1     -56.709 -42.296 -76.602  0.00  0.00    +0.000 A 
ATOM     14  H   UNL     1     -57.932 -45.038 -77.805  0.00  0.00    +0.000 HD
ENDROOT
BRANCH   1  15
ATOM     15  S   UNL     1     -59.275 -42.815 -77.615  0.00  0.00    +0.000 S 
ATOM     16  O   UNL     1     -59.825 -44.176 -77.944  0.00  0.00    +0.000 OA
BRANCH  15  17
ATOM     17  C   UNL     1     -59.489 -41.771 -79.087  0.00  0.00    +0.000 C 
BRANCH  17  21
ATOM     18  C   UNL     1     -61.876 -37.251 -78.783  0.00  0.00    +0.000 C 
ATOM     19  C   UNL     1     -61.351 -38.613 -78.994  0.00  0.00    +0.000 A 
ATOM     20  C   UNL     1     -60.191 -39.267 -78.651  0.00  0.00    +0.000 A 
ATOM     21  C   UNL     1     -60.389 -40.595 -79.088  0.00  0.00    +0.000 A 
ATOM     22  N   UNL     1     -61.570 -40.712 -79.720  0.00  0.00    +0.000 NA
ATOM     23  O   UNL     1     -62.168 -39.471 -79.657  0.00  0.00    +0.000 OA
ENDBRANCH  17  21
ENDBRANCH  15  17
ENDBRANCH   1  15
BRANCH  13  24
ATOM     24  C   UNL     1     -57.012 -41.084 -75.788  0.00  0.00    +0.000 C 
ATOM     25  O   UNL     1     -57.262 -40.021 -76.329  0.00  0.00    +0.000 OA
BRANCH  24  26
ATOM     26  C   UNL     1     -57.049 -41.206 -74.318  0.00  0.00    +0.000 C 
ATOM     27  C   UNL     1     -57.726 -42.397 -73.690  0.00  0.00    +0.000 C 
ATOM     28  C   UNL     1     -58.340 -41.038 -73.552  0.00  0.00    +0.000 C 
ENDBRANCH  24  26
ENDBRANCH  13  24
TORSDOF 5
ENDMDL
MODEL 5
REMARK VINA RESULT:    -6.407     12.764     14.081
REMARK INTER + INTRA:          -9.181
REMARK INTER:                  -8.491
REMARK INTRA:                  -0.691
REMARK UNBOUND:                -0.901
REMARK  Name = 
REMARK  6 active torsions:
REMARK  status: ('A' for Active; 'I' for Inactive)
REMARK    1  A    between atoms: C_1  and  C_2
REMARK    2  A    between atoms: C_4  and  C_5
REMARK    3  A    between atoms: C_5  and  S_6
REMARK    4  A    between atoms: S_6  and  C_8
REMARK    5  A    between atoms: C_20  and  C_21
REMARK    6  A    between atoms: C_21  and  C_23
REMARK                            x       y       z     vdW  Elec       q    Type
REMARK                         _______ _______ _______ _____ _____    ______ ____
ROOT
ATOM      1  C   UNL     1     -55.565 -43.613 -77.551  0.00  0.00    +0.000 A 
ATOM      2  N   UNL     1     -54.283 -43.690 -76.972  0.00  0.00    +0.000 N 
ATOM      3  C   UNL     1     -53.509 -42.514 -76.770  0.00  0.00    +0.000 A 
ATOM      4  C   UNL     1     -52.428 -42.452 -75.871  0.00  0.00    +0.000 A 
ATOM      5 BR   UNL     1     -52.031 -43.903 -74.715  0.00  0.00    +0.000 Br
ATOM      6  C   UNL     1     -51.623 -41.308 -75.782  0.00  0.00    +0.000 A 
ATOM      7  C   UNL     1     -51.912 -40.195 -76.580  0.00  0.00    +0.000 A 
ATOM      8  C   UNL     1     -52.980 -40.232 -77.477  0.00  0.00    +0.000 A 
ATOM      9 CL   UNL     1     -53.297 -38.784 -78.362  0.00  0.00    +0.000 Cl
ATOM     10  C   UNL     1     -53.756 -41.396 -77.582  0.00  0.00    +0.000 A 
ATOM     11  C   UNL     1     -54.849 -41.559 -78.560  0.00  0.00    +0.000 A 
ATOM     12  O   UNL     1     -54.831 -40.994 -79.647  0.00  0.00    +0.000 OA
ATOM     13  C   UNL     1     -55.960 -42.508 -78.222  0.00  0.00    +0.000 A 
ATOM     14  H   UNL     1     -54.252 -44.348 -76.182  0.00  0.00    +0.000 HD
ENDROOT
BRANCH   1  15
ATOM     15  S   UNL     1     -56.690 -44.888 -76.924  0.00  0.00    +0.000 S 
ATOM     16  O   UNL     1     -55.892 -45.594 -75.862  0.00  0.00    +0.000 OA
BRANCH  15  17
ATOM     17  C   UNL     1     -57.032 -46.095 -78.239  0.00  0.00    +0.000 C 
BRANCH  17  21
ATOM     18  C   UNL     1     -58.505 -50.839 -76.997  0.00  0.00    +0.000 C 
ATOM     19  C   UNL     1     -58.288 -49.424 -77.354  0.00  0.00    +0.000 A 
ATOM     20  C   UNL     1     -57.180 -48.628 -77.521  0.00  0.00    +0.000 A 
ATOM     21  C   UNL     1     -57.696 -47.389 -77.960  0.00  0.00    +0.000 A 
ATOM     22  N   UNL     1     -59.040 -47.420 -77.985  0.00  0.00    +0.000 NA
ATOM     23  O   UNL     1     -59.405 -48.695 -77.607  0.00  0.00    +0.000 OA
ENDBRANCH  17  21
ENDBRANCH  15  17
ENDBRANCH   1  15
BRANCH  13  24
ATOM     24  C   UNL     1     -57.317 -41.978 -78.535  0.00  0.00    +0.000 C 
ATOM     25  O   UNL     1     -57.781 -42.087 -79.657  0.00  0.00    +0.000 OA
BRANCH  24  26
ATOM     26  C   UNL     1     -58.107 -41.362 -77.452  0.00  0.00    +0.000 C 
ATOM     27  C   UNL     1     -59.038 -40.220 -77.771  0.00  0.00    +0.000 C 
ATOM     28  C   UNL     1     -57.805 -39.967 -76.959  0.00  0.00    +0.000 C 
ENDBRANCH  24  26
ENDBRANCH  13  24
TORSDOF 5
ENDMDL
MODEL 6
REMARK VINA RESULT:    -6.270     13.164     15.281
REMARK INTER + INTRA:          -9.004
REMARK INTER:                  -7.749
REMARK INTRA:                  -1.255
REMARK UNBOUND:                -0.901
REMARK  Name = 
REMARK  6 active torsions:
REMARK  status: ('A' for Active; 'I' for Inactive)
REMARK    1  A    between atoms: C_1  and  C_2
REMARK    2  A    between atoms: C_4  and  C_5
REMARK    3  A    between atoms: C_5  and  S_6
REMARK    4  A    between atoms: S_6  and  C_8
REMARK    5  A    between atoms: C_20  and  C_21
REMARK    6  A    between atoms: C_21  and  C_23
REMARK                            x       y       z     vdW  Elec       q    Type
REMARK                         _______ _______ _______ _____ _____    ______ ____
ROOT
ATOM      1  C   UNL     1     -55.809 -42.841 -78.701  0.00  0.00    +0.000 A 
ATOM      2  N   UNL     1     -55.810 -44.249 -78.724  0.00  0.00    +0.000 N 
ATOM      3  C   UNL     1     -55.285 -44.990 -77.629  0.00  0.00    +0.000 A 
ATOM      4  C   UNL     1     -55.595 -46.344 -77.400  0.00  0.00    +0.000 A 
ATOM      5 BR   UNL     1     -56.895 -47.242 -78.450  0.00  0.00    +0.000 Br
ATOM      6  C   UNL     1     -54.971 -47.067 -76.374  0.00  0.00    +0.000 A 
ATOM      7  C   UNL     1     -54.043 -46.429 -75.543  0.00  0.00    +0.000 A 
ATOM      8  C   UNL     1     -53.722 -45.087 -75.749  0.00  0.00    +0.000 A 
ATOM      9 CL   UNL     1     -52.621 -44.374 -74.626  0.00  0.00    +0.000 Cl
ATOM     10  C   UNL     1     -54.327 -44.384 -76.802  0.00  0.00    +0.000 A 
ATOM     11  C   UNL     1     -53.987 -42.991 -77.150  0.00  0.00    +0.000 A 
ATOM     12  O   UNL     1     -52.868 -42.533 -76.958  0.00  0.00    +0.000 OA
ATOM     13  C   UNL     1     -55.036 -42.159 -77.827  0.00  0.00    +0.000 A 
ATOM     14  H   UNL     1     -56.687 -44.632 -79.101  0.00  0.00    +0.000 HD
ENDROOT
BRANCH   1  15
ATOM     15  S   UNL     1     -57.217 -42.129 -79.594  0.00  0.00    +0.000 S 
ATOM     16  O   UNL     1     -58.282 -43.188 -79.507  0.00  0.00    +0.000 OA
BRANCH  15  17
ATOM     17  C   UNL     1     -56.786 -41.934 -81.349  0.00  0.00    +0.000 C 
BRANCH  17  21
ATOM     18  C   UNL     1     -51.900 -41.850 -82.878  0.00  0.00    +0.000 C 
ATOM     19  C   UNL     1     -53.314 -41.671 -82.501  0.00  0.00    +0.000 A 
ATOM     20  C   UNL     1     -54.301 -42.503 -82.027  0.00  0.00    +0.000 A 
ATOM     21  C   UNL     1     -55.400 -41.648 -81.787  0.00  0.00    +0.000 A 
ATOM     22  N   UNL     1     -55.111 -40.390 -82.163  0.00  0.00    +0.000 NA
ATOM     23  O   UNL     1     -53.805 -40.410 -82.607  0.00  0.00    +0.000 OA
ENDBRANCH  17  21
ENDBRANCH  15  17
ENDBRANCH   1  15
BRANCH  13  24
ATOM     24  C   UNL     1     -55.145 -40.775 -77.286  0.00  0.00    +0.000 C 
ATOM     25  O   UNL     1     -55.617 -40.578 -76.179  0.00  0.00    +0.000 OA
BRANCH  24  26
ATOM     26  C   UNL     1     -54.628 -39.653 -78.092  0.00  0.00    +0.000 C 
ATOM     27  C   UNL     1     -53.476 -39.887 -79.035  0.00  0.00    +0.000 C 
ATOM     28  C   UNL     1     -53.274 -39.047 -77.811  0.00  0.00    +0.000 C 
ENDBRANCH  24  26
ENDBRANCH  13  24
TORSDOF 5
ENDMDL
MODEL 7
REMARK VINA RESULT:    -6.222      3.289      5.420
REMARK INTER + INTRA:          -8.942
REMARK INTER:                  -8.259
REMARK INTRA:                  -0.683
REMARK UNBOUND:                -0.901
REMARK  Name = 
REMARK  6 active torsions:
REMARK  status: ('A' for Active; 'I' for Inactive)
REMARK    1  A    between atoms: C_1  and  C_2
REMARK    2  A    between atoms: C_4  and  C_5
REMARK    3  A    between atoms: C_5  and  S_6
REMARK    4  A    between atoms: S_6  and  C_8
REMARK    5  A    between atoms: C_20  and  C_21
REMARK    6  A    between atoms: C_21  and  C_23
REMARK                            x       y       z     vdW  Elec       q    Type
REMARK                         _______ _______ _______ _____ _____    ______ ____
ROOT
ATOM      1  C   UNL     1     -57.278 -41.443 -63.241  0.00  0.00    +0.000 A 
ATOM      2  N   UNL     1     -56.932 -40.723 -62.081  0.00  0.00    +0.000 N 
ATOM      3  C   UNL     1     -56.127 -39.554 -62.168  0.00  0.00    +0.000 A 
ATOM      4  C   UNL     1     -56.066 -38.586 -61.148  0.00  0.00    +0.000 A 
ATOM      5 BR   UNL     1     -57.207 -38.685 -59.635  0.00  0.00    +0.000 Br
ATOM      6  C   UNL     1     -55.177 -37.505 -61.226  0.00  0.00    +0.000 A 
ATOM      7  C   UNL     1     -54.353 -37.366 -62.349  0.00  0.00    +0.000 A 
ATOM      8  C   UNL     1     -54.398 -38.312 -63.374  0.00  0.00    +0.000 A 
ATOM      9 CL   UNL     1     -53.396 -38.011 -64.748  0.00  0.00    +0.000 Cl
ATOM     10  C   UNL     1     -55.266 -39.409 -63.267  0.00  0.00    +0.000 A 
ATOM     11  C   UNL     1     -55.321 -40.501 -64.257  0.00  0.00    +0.000 A 
ATOM     12  O   UNL     1     -54.336 -40.836 -64.904  0.00  0.00    +0.000 OA
ATOM     13  C   UNL     1     -56.609 -41.257 -64.400  0.00  0.00    +0.000 A 
ATOM     14  H   UNL     1     -57.722 -40.635 -61.428  0.00  0.00    +0.000 HD
ENDROOT
BRANCH   1  15
ATOM     15  S   UNL     1     -58.904 -42.232 -63.112  0.00  0.00    +0.000 S 
ATOM     16  O   UNL     1     -59.876 -41.085 -63.163  0.00  0.00    +0.000 OA
BRANCH  15  17
ATOM     17  C   UNL     1     -59.071 -43.014 -61.480  0.00  0.00    +0.000 C 
BRANCH  17  21
ATOM     18  C   UNL     1     -62.339 -46.866 -60.642  0.00  0.00    +0.000 C 
ATOM     19  C   UNL     1     -61.531 -45.639 -60.766  0.00  0.00    +0.000 A 
ATOM     20  C   UNL     1     -60.308 -45.337 -61.317  0.00  0.00    +0.000 A 
ATOM     21  C   UNL     1     -60.185 -43.939 -61.165  0.00  0.00    +0.000 A 
ATOM     22  N   UNL     1     -61.241 -43.442 -60.498  0.00  0.00    +0.000 NA
ATOM     23  O   UNL     1     -62.080 -44.509 -60.252  0.00  0.00    +0.000 OA
ENDBRANCH  17  21
ENDBRANCH  15  17
ENDBRANCH   1  15
BRANCH  13  24
ATOM     24  C   UNL     1     -57.000 -41.513 -65.816  0.00  0.00    +0.000 C 
ATOM     25  O   UNL     1     -57.394 -40.603 -66.524  0.00  0.00    +0.000 OA
BRANCH  24  26
ATOM     26  C   UNL     1     -56.855 -42.878 -66.358  0.00  0.00    +0.000 C 
ATOM     27  C   UNL     1     -57.234 -43.150 -67.791  0.00  0.00    +0.000 C 
ATOM     28  C   UNL     1     -58.064 -43.723 -66.683  0.00  0.00    +0.000 C 
ENDBRANCH  24  26
ENDBRANCH  13  24
TORSDOF 5
ENDMDL
MODEL 8
REMARK VINA RESULT:    -6.101     14.182     16.526
REMARK INTER + INTRA:          -8.785
REMARK INTER:                  -7.940
REMARK INTRA:                  -0.845
REMARK UNBOUND:                -0.901
REMARK  Name = 
REMARK  6 active torsions:
REMARK  status: ('A' for Active; 'I' for Inactive)
REMARK    1  A    between atoms: C_1  and  C_2
REMARK    2  A    between atoms: C_4  and  C_5
REMARK    3  A    between atoms: C_5  and  S_6
REMARK    4  A    between atoms: S_6  and  C_8
REMARK    5  A    between atoms: C_20  and  C_21
REMARK    6  A    between atoms: C_21  and  C_23
REMARK                            x       y       z     vdW  Elec       q    Type
REMARK                         _______ _______ _______ _____ _____    ______ ____
ROOT
ATOM      1  C   UNL     1     -53.345 -42.664 -79.089  0.00  0.00    +0.000 A 
ATOM      2  N   UNL     1     -54.503 -43.451 -79.245  0.00  0.00    +0.000 N 
ATOM      3  C   UNL     1     -55.503 -43.476 -78.233  0.00  0.00    +0.000 A 
ATOM      4  C   UNL     1     -56.823 -43.903 -78.469  0.00  0.00    +0.000 A 
ATOM      5 BR   UNL     1     -57.421 -44.314 -80.222  0.00  0.00    +0.000 Br
ATOM      6  C   UNL     1     -57.746 -44.017 -77.421  0.00  0.00    +0.000 A 
ATOM      7  C   UNL     1     -57.362 -43.674 -76.119  0.00  0.00    +0.000 A 
ATOM      8  C   UNL     1     -56.059 -43.247 -75.861  0.00  0.00    +0.000 A 
ATOM      9 CL   UNL     1     -55.706 -42.779 -74.237  0.00  0.00    +0.000 Cl
ATOM     10  C   UNL     1     -55.134 -43.171 -76.914  0.00  0.00    +0.000 A 
ATOM     11  C   UNL     1     -53.715 -42.813 -76.724  0.00  0.00    +0.000 A 
ATOM     12  O   UNL     1     -53.118 -43.072 -75.687  0.00  0.00    +0.000 OA
ATOM     13  C   UNL     1     -52.989 -42.185 -77.876  0.00  0.00    +0.000 A 
ATOM     14  H   UNL     1     -54.882 -43.401 -80.200  0.00  0.00    +0.000 HD
ENDROOT
BRANCH   1  15
ATOM     15  S   UNL     1     -52.714 -42.034 -80.666  0.00  0.00    +0.000 S 
ATOM     16  O   UNL     1     -53.677 -40.940 -81.039  0.00  0.00    +0.000 OA
BRANCH  15  17
ATOM     17  C   UNL     1     -52.845 -43.330 -81.933  0.00  0.00    +0.000 C 
BRANCH  17  21
ATOM     18  C   UNL     1     -49.383 -43.083 -85.697  0.00  0.00    +0.000 C 
ATOM     19  C   UNL     1     -50.512 -43.233 -84.760  0.00  0.00    +0.000 A 
ATOM     20  C   UNL     1     -50.674 -43.060 -83.406  0.00  0.00    +0.000 A 
ATOM     21  C   UNL     1     -52.050 -43.286 -83.182  0.00  0.00    +0.000 A 
ATOM     22  N   UNL     1     -52.662 -43.643 -84.325  0.00  0.00    +0.000 NA
ATOM     23  O   UNL     1     -51.696 -43.606 -85.309  0.00  0.00    +0.000 OA
ENDBRANCH  17  21
ENDBRANCH  15  17
ENDBRANCH   1  15
BRANCH  13  24
ATOM     24  C   UNL     1     -52.132 -41.029 -77.486  0.00  0.00    +0.000 C 
ATOM     25  O   UNL     1     -50.918 -41.132 -77.477  0.00  0.00    +0.000 OA
BRANCH  24  26
ATOM     26  C   UNL     1     -52.779 -39.744 -77.159  0.00  0.00    +0.000 C 
ATOM     27  C   UNL     1     -54.202 -39.499 -77.590  0.00  0.00    +0.000 C 
ATOM     28  C   UNL     1     -53.090 -38.728 -78.233  0.00  0.00    +0.000 C 
ENDBRANCH  24  26
ENDBRANCH  13  24
TORSDOF 5
ENDMDL
MODEL 9
REMARK VINA RESULT:    -6.072      3.359      5.772
REMARK INTER + INTRA:          -8.748
REMARK INTER:                  -7.838
REMARK INTRA:                  -0.910
REMARK UNBOUND:                -0.901
REMARK  Name = 
REMARK  6 active torsions:
REMARK  status: ('A' for Active; 'I' for Inactive)
REMARK    1  A    between atoms: C_1  and  C_2
REMARK    2  A    between atoms: C_4  and  C_5
REMARK    3  A    between atoms: C_5  and  S_6
REMARK    4  A    between atoms: S_6  and  C_8
REMARK    5  A    between atoms: C_20  and  C_21
REMARK    6  A    between atoms: C_21  and  C_23
REMARK                            x       y       z     vdW  Elec       q    Type
REMARK                         _______ _______ _______ _____ _____    ______ ____
ROOT
ATOM      1  C   UNL     1     -57.638 -40.802 -62.930  0.00  0.00    +0.000 A 
ATOM      2  N   UNL     1     -57.137 -39.537 -62.567  0.00  0.00    +0.000 N 
ATOM      3  C   UNL     1     -56.023 -38.976 -63.250  0.00  0.00    +0.000 A 
ATOM      4  C   UNL     1     -55.717 -37.603 -63.223  0.00  0.00    +0.000 A 
ATOM      5 BR   UNL     1     -56.889 -36.355 -62.406  0.00  0.00    +0.000 Br
ATOM      6  C   UNL     1     -54.548 -37.108 -63.818  0.00  0.00    +0.000 A 
ATOM      7  C   UNL     1     -53.681 -37.988 -64.476  0.00  0.00    +0.000 A 
ATOM      8  C   UNL     1     -53.964 -39.353 -64.518  0.00  0.00    +0.000 A 
ATOM      9 CL   UNL     1     -52.870 -40.342 -65.416  0.00  0.00    +0.000 Cl
ATOM     10  C   UNL     1     -55.119 -39.840 -63.888  0.00  0.00    +0.000 A 
ATOM     11  C   UNL     1     -55.456 -41.275 -63.806  0.00  0.00    +0.000 A 
ATOM     12  O   UNL     1     -54.590 -42.140 -63.773  0.00  0.00    +0.000 OA
ATOM     13  C   UNL     1     -56.903 -41.651 -63.682  0.00  0.00    +0.000 A 
ATOM     14  H   UNL     1     -57.889 -38.861 -62.377  0.00  0.00    +0.000 HD
ENDROOT
BRANCH   1  15
ATOM     15  S   UNL     1     -59.427 -40.941 -62.680  0.00  0.00    +0.000 S 
ATOM     16  O   UNL     1     -59.771 -39.764 -61.808  0.00  0.00    +0.000 OA
BRANCH  15  17
ATOM     17  C   UNL     1     -59.792 -42.446 -61.730  0.00  0.00    +0.000 C 
BRANCH  17  21
ATOM     18  C   UNL     1     -59.384 -43.307 -56.699  0.00  0.00    +0.000 C 
ATOM     19  C   UNL     1     -59.292 -43.019 -58.142  0.00  0.00    +0.000 A 
ATOM     20  C   UNL     1     -60.169 -43.086 -59.199  0.00  0.00    +0.000 A 
ATOM     21  C   UNL     1     -59.443 -42.571 -60.296  0.00  0.00    +0.000 A 
ATOM     22  N   UNL     1     -58.182 -42.279 -59.932  0.00  0.00    +0.000 NA
ATOM     23  O   UNL     1     -58.094 -42.560 -58.584  0.00  0.00    +0.000 OA
ENDBRANCH  17  21
ENDBRANCH  15  17
ENDBRANCH   1  15
BRANCH  13  24
ATOM     24  C   UNL     1     -57.301 -42.794 -64.552  0.00  0.00    +0.000 C 
ATOM     25  O   UNL     1     -57.332 -43.929 -64.108  0.00  0.00    +0.000 OA
BRANCH  24  26
ATOM     26  C   UNL     1     -57.704 -42.522 -65.945  0.00  0.00    +0.000 C 
ATOM     27  C   UNL     1     -57.794 -43.662 -66.927  0.00  0.00    +0.000 C 
ATOM     28  C   UNL     1     -56.716 -42.633 -67.081  0.00  0.00    +0.000 C 
ENDBRANCH  24  26
ENDBRANCH  13  24
TORSDOF 5
ENDMDL
MODEL 10
REMARK VINA RESULT:    -6.019     12.539     15.455
REMARK INTER + INTRA:          -8.679
REMARK INTER:                  -7.643
REMARK INTRA:                  -1.036
REMARK UNBOUND:                -0.901
REMARK  Name = 
REMARK  6 active torsions:
REMARK  status: ('A' for Active; 'I' for Inactive)
REMARK    1  A    between atoms: C_1  and  C_2
REMARK    2  A    between atoms: C_4  and  C_5
REMARK    3  A    between atoms: C_5  and  S_6
REMARK    4  A    between atoms: S_6  and  C_8
REMARK    5  A    between atoms: C_20  and  C_21
REMARK    6  A    between atoms: C_21  and  C_23
REMARK                            x       y       z     vdW  Elec       q    Type
REMARK                         _______ _______ _______ _____ _____    ______ ____
ROOT
ATOM      1  C   UNL     1     -65.695 -47.302 -55.598  0.00  0.00    +0.000 A 
ATOM      2  N   UNL     1     -66.534 -48.330 -56.069  0.00  0.00    +0.000 N 
ATOM      3  C   UNL     1     -66.787 -49.480 -55.272  0.00  0.00    +0.000 A 
ATOM      4  C   UNL     1     -67.883 -50.337 -55.486  0.00  0.00    +0.000 A 
ATOM      5 BR   UNL     1     -69.222 -49.914 -56.761  0.00  0.00    +0.000 Br
ATOM      6  C   UNL     1     -68.033 -51.520 -54.748  0.00  0.00    +0.000 A 
ATOM      7  C   UNL     1     -67.095 -51.845 -53.762  0.00  0.00    +0.000 A 
ATOM      8  C   UNL     1     -66.002 -51.010 -53.530  0.00  0.00    +0.000 A 
ATOM      9 CL   UNL     1     -64.943 -51.462 -52.244  0.00  0.00    +0.000 Cl
ATOM     10  C   UNL     1     -65.843 -49.847 -54.300  0.00  0.00    +0.000 A 
ATOM     11  C   UNL     1     -64.677 -48.950 -54.186  0.00  0.00    +0.000 A 
ATOM     12  O   UNL     1     -63.571 -49.368 -53.863  0.00  0.00    +0.000 OA
ATOM     13  C   UNL     1     -64.860 -47.508 -54.556  0.00  0.00    +0.000 A 
ATOM     14  H   UNL     1     -67.370 -47.964 -56.545  0.00  0.00    +0.000 HD
ENDROOT
BRANCH   1  15
ATOM     15  S   UNL     1     -66.186 -45.668 -56.209  0.00  0.00    +0.000 S 
ATOM     16  O   UNL     1     -67.234 -45.962 -57.248  0.00  0.00    +0.000 OA
BRANCH  15  17
ATOM     17  C   UNL     1     -64.781 -44.891 -57.059  0.00  0.00    +0.000 C 
BRANCH  17  21
ATOM     18  C   UNL     1     -62.105 -47.233 -60.743  0.00  0.00    +0.000 C 
ATOM     19  C   UNL     1     -62.711 -46.604 -59.555  0.00  0.00    +0.000 A 
ATOM     20  C   UNL     1     -63.853 -45.875 -59.323  0.00  0.00    +0.000 A 
ATOM     21  C   UNL     1     -63.864 -45.667 -57.926  0.00  0.00    +0.000 A 
ATOM     22  N   UNL     1     -62.756 -46.180 -57.364  0.00  0.00    +0.000 NA
ATOM     23  O   UNL     1     -62.039 -46.766 -58.386  0.00  0.00    +0.000 OA
ENDBRANCH  17  21
ENDBRANCH  15  17
ENDBRANCH   1  15
BRANCH  13  24
ATOM     24  C   UNL     1     -64.223 -46.559 -53.600  0.00  0.00    +0.000 C 
ATOM     25  O   UNL     1     -63.415 -45.734 -53.991  0.00  0.00    +0.000 OA
BRANCH  24  26
ATOM     26  C   UNL     1     -64.624 -46.603 -52.181  0.00  0.00    +0.000 C 
ATOM     27  C   UNL     1     -63.910 -45.729 -51.181  0.00  0.00    +0.000 C 
ATOM     28  C   UNL     1     -63.726 -47.216 -51.132  0.00  0.00    +0.000 C 
ENDBRANCH  24  26
ENDBRANCH  13  24
TORSDOF 5
ENDMDL
MODEL 11
REMARK VINA RESULT:    -6.001     11.239     13.717
REMARK INTER + INTRA:          -8.656
REMARK INTER:                  -7.633
REMARK INTRA:                  -1.023
REMARK UNBOUND:                -0.901
REMARK  Name = 
REMARK  6 active torsions:
REMARK  status: ('A' for Active; 'I' for Inactive)
REMARK    1  A    between atoms: C_1  and  C_2
REMARK    2  A    between atoms: C_4  and  C_5
REMARK    3  A    between atoms: C_5  and  S_6
REMARK    4  A    between atoms: S_6  and  C_8
REMARK    5  A    between atoms: C_20  and  C_21
REMARK    6  A    between atoms: C_21  and  C_23
REMARK                            x       y       z     vdW  Elec       q    Type
REMARK                         _______ _______ _______ _____ _____    ______ ____
ROOT
ATOM      1  C   UNL     1     -57.779 -43.340 -77.025  0.00  0.00    +0.000 A 
ATOM      2  N   UNL     1     -57.285 -44.613 -77.370  0.00  0.00    +0.000 N 
ATOM      3  C   UNL     1     -56.147 -45.152 -76.709  0.00  0.00    +0.000 A 
ATOM      4  C   UNL     1     -55.836 -46.524 -76.710  0.00  0.00    +0.000 A 
ATOM      5 BR   UNL     1     -57.028 -47.798 -77.455  0.00  0.00    +0.000 Br
ATOM      6  C   UNL     1     -54.646 -46.999 -76.139  0.00  0.00    +0.000 A 
ATOM      7  C   UNL     1     -53.762 -46.099 -75.533  0.00  0.00    +0.000 A 
ATOM      8  C   UNL     1     -54.050 -44.734 -75.518  0.00  0.00    +0.000 A 
ATOM      9 CL   UNL     1     -52.932 -43.718 -74.683  0.00  0.00    +0.000 Cl
ATOM     10  C   UNL     1     -55.226 -44.268 -76.124  0.00  0.00    +0.000 A 
ATOM     11  C   UNL     1     -55.572 -42.837 -76.232  0.00  0.00    +0.000 A 
ATOM     12  O   UNL     1     -54.712 -41.970 -76.316  0.00  0.00    +0.000 OA
ATOM     13  C   UNL     1     -57.024 -42.470 -76.319  0.00  0.00    +0.000 A 
ATOM     14  H   UNL     1     -58.040 -45.297 -77.518  0.00  0.00    +0.000 HD
ENDROOT
BRANCH   1  15
ATOM     15  S   UNL     1     -59.576 -43.214 -77.220  0.00  0.00    +0.000 S 
ATOM     16  O   UNL     1     -59.945 -44.427 -78.030  0.00  0.00    +0.000 OA
BRANCH  15  17
ATOM     17  C   UNL     1     -59.976 -41.750 -78.219  0.00  0.00    +0.000 C 
BRANCH  17  21
ATOM     18  C   UNL     1     -57.599 -41.530 -82.749  0.00  0.00    +0.000 C 
ATOM     19  C   UNL     1     -58.465 -41.591 -81.557  0.00  0.00    +0.000 A 
ATOM     20  C   UNL     1     -58.243 -41.734 -80.207  0.00  0.00    +0.000 A 
ATOM     21  C   UNL     1     -59.524 -41.613 -79.623  0.00  0.00    +0.000 A 
ATOM     22  N   UNL     1     -60.465 -41.476 -80.573  0.00  0.00    +0.000 NA
ATOM     23  O   UNL     1     -59.797 -41.462 -81.780  0.00  0.00    +0.000 OA
ENDBRANCH  17  21
ENDBRANCH  15  17
ENDBRANCH   1  15
BRANCH  13  24
ATOM     24  C   UNL     1     -57.399 -41.305 -75.467  0.00  0.00    +0.000 C 
ATOM     25  O   UNL     1     -57.426 -40.179 -75.934  0.00  0.00    +0.000 OA
BRANCH  24  26
ATOM     26  C   UNL     1     -57.783 -41.545 -74.064  0.00  0.00    +0.000 C 
ATOM     27  C   UNL     1     -57.861 -40.382 -73.107  0.00  0.00    +0.000 C 
ATOM     28  C   UNL     1     -56.780 -41.407 -72.943  0.00  0.00    +0.000 C 
ENDBRANCH  24  26
ENDBRANCH  13  24
TORSDOF 5
ENDMDL
MODEL 12
REMARK VINA RESULT:    -5.941      3.833      5.805
REMARK INTER + INTRA:          -8.579
REMARK INTER:                  -7.634
REMARK INTRA:                  -0.945
REMARK UNBOUND:                -0.901
REMARK  Name = 
REMARK  6 active torsions:
REMARK  status: ('A' for Active; 'I' for Inactive)
REMARK    1  A    between atoms: C_1  and  C_2
REMARK    2  A    between atoms: C_4  and  C_5
REMARK    3  A    between atoms: C_5  and  S_6
REMARK    4  A    between atoms: S_6  and  C_8
REMARK    5  A    between atoms: C_20  and  C_21
REMARK    6  A    between atoms: C_21  and  C_23
REMARK                            x       y       z     vdW  Elec       q    Type
REMARK                         _______ _______ _______ _____ _____    ______ ____
ROOT
ATOM      1  C   UNL     1     -57.668 -41.102 -62.612  0.00  0.00    +0.000 A 
ATOM      2  N   UNL     1     -57.184 -39.835 -62.232  0.00  0.00    +0.000 N 
ATOM      3  C   UNL     1     -56.134 -39.214 -62.961  0.00  0.00    +0.000 A 
ATOM      4  C   UNL     1     -55.869 -37.833 -62.899  0.00  0.00    +0.000 A 
ATOM      5 BR   UNL     1     -57.024 -36.655 -61.962  0.00  0.00    +0.000 Br
ATOM      6  C   UNL     1     -54.756 -37.278 -63.546  0.00  0.00    +0.000 A 
ATOM      7  C   UNL     1     -53.906 -38.103 -64.292  0.00  0.00    +0.000 A 
ATOM      8  C   UNL     1     -54.150 -39.475 -64.370  0.00  0.00    +0.000 A 
ATOM      9 CL   UNL     1     -53.085 -40.393 -65.372  0.00  0.00    +0.000 Cl
ATOM     10  C   UNL     1     -55.246 -40.023 -63.687  0.00  0.00    +0.000 A 
ATOM     11  C   UNL     1     -55.534 -41.470 -63.641  0.00  0.00    +0.000 A 
ATOM     12  O   UNL     1     -54.641 -42.306 -63.697  0.00  0.00    +0.000 OA
ATOM     13  C   UNL     1     -56.957 -41.898 -63.442  0.00  0.00    +0.000 A 
ATOM     14  H   UNL     1     -57.943 -39.192 -61.968  0.00  0.00    +0.000 HD
ENDROOT
BRANCH   1  15
ATOM     15  S   UNL     1     -59.433 -41.309 -62.256  0.00  0.00    +0.000 S 
ATOM     16  O   UNL     1     -60.123 -40.702 -63.446  0.00  0.00    +0.000 OA
BRANCH  15  17
ATOM     17  C   UNL     1     -59.879 -40.315 -60.802  0.00  0.00    +0.000 C 
BRANCH  17  21
ATOM     18  C   UNL     1     -62.682 -36.036 -61.026  0.00  0.00    +0.000 C 
ATOM     19  C   UNL     1     -62.051 -37.369 -61.025  0.00  0.00    +0.000 A 
ATOM     20  C   UNL     1     -60.774 -37.834 -60.818  0.00  0.00    +0.000 A 
ATOM     21  C   UNL     1     -60.896 -39.241 -60.871  0.00  0.00    +0.000 A 
ATOM     22  N   UNL     1     -62.160 -39.594 -61.165  0.00  0.00    +0.000 NA
ATOM     23  O   UNL     1     -62.878 -38.419 -61.258  0.00  0.00    +0.000 OA
ENDBRANCH  17  21
ENDBRANCH  15  17
ENDBRANCH   1  15
BRANCH  13  24
ATOM     24  C   UNL     1     -57.375 -43.020 -64.329  0.00  0.00    +0.000 C 
ATOM     25  O   UNL     1     -57.398 -44.165 -63.911  0.00  0.00    +0.000 OA
BRANCH  24  26
ATOM     26  C   UNL     1     -57.807 -42.716 -65.706  0.00  0.00    +0.000 C 
ATOM     27  C   UNL     1     -57.955 -43.837 -66.702  0.00  0.00    +0.000 C 
ATOM     28  C   UNL     1     -56.853 -42.837 -66.871  0.00  0.00    +0.000 C 
ENDBRANCH  24  26
ENDBRANCH  13  24
TORSDOF 5
ENDMDL
MODEL 13
REMARK VINA RESULT:    -5.766     11.874     14.463
REMARK INTER + INTRA:          -8.353
REMARK INTER:                  -7.271
REMARK INTRA:                  -1.082
REMARK UNBOUND:                -0.901
REMARK  Name = 
REMARK  6 active torsions:
REMARK  status: ('A' for Active; 'I' for Inactive)
REMARK    1  A    between atoms: C_1  and  C_2
REMARK    2  A    between atoms: C_4  and  C_5
REMARK    3  A    between atoms: C_5  and  S_6
REMARK    4  A    between atoms: S_6  and  C_8
REMARK    5  A    between atoms: C_20  and  C_21
REMARK    6  A    between atoms: C_21  and  C_23
REMARK                            x       y       z     vdW  Elec       q    Type
REMARK                         _______ _______ _______ _____ _____    ______ ____
ROOT
ATOM      1  C   UNL     1     -55.159 -43.413 -77.647  0.00  0.00    +0.000 A 
ATOM      2  N   UNL     1     -56.516 -43.760 -77.494  0.00  0.00    +0.000 N 
ATOM      3  C   UNL     1     -57.320 -43.121 -76.512  0.00  0.00    +0.000 A 
ATOM      4  C   UNL     1     -58.727 -43.119 -76.554  0.00  0.00    +0.000 A 
ATOM      5 BR   UNL     1     -59.663 -43.829 -78.043  0.00  0.00    +0.000 Br
ATOM      6  C   UNL     1     -59.483 -42.572 -75.508  0.00  0.00    +0.000 A 
ATOM      7  C   UNL     1     -58.832 -41.991 -74.413  0.00  0.00    +0.000 A 
ATOM      8  C   UNL     1     -57.439 -41.979 -74.350  0.00  0.00    +0.000 A 
ATOM      9 CL   UNL     1     -56.733 -41.176 -72.994  0.00  0.00    +0.000 Cl
ATOM     10  C   UNL     1     -56.694 -42.562 -75.387  0.00  0.00    +0.000 A 
ATOM     11  C   UNL     1     -55.222 -42.673 -75.367  0.00  0.00    +0.000 A 
ATOM     12  O   UNL     1     -54.598 -42.782 -74.319  0.00  0.00    +0.000 OA
ATOM     13  C   UNL     1     -54.504 -42.730 -76.682  0.00  0.00    +0.000 A 
ATOM     14  H   UNL     1     -56.989 -43.887 -78.399  0.00  0.00    +0.000 HD
ENDROOT
BRANCH   1  15
ATOM     15  S   UNL     1     -54.588 -43.570 -79.359  0.00  0.00    +0.000 S 
ATOM     16  O   UNL     1     -55.050 -42.300 -80.020  0.00  0.00    +0.000 OA
BRANCH  15  17
ATOM     17  C   UNL     1     -55.456 -44.948 -80.164  0.00  0.00    +0.000 C 
BRANCH  17  21
ATOM     18  C   UNL     1     -55.473 -49.548 -77.916  0.00  0.00    +0.000 C 
ATOM     19  C   UNL     1     -55.386 -48.324 -78.733  0.00  0.00    +0.000 A 
ATOM     20  C   UNL     1     -55.784 -47.019 -78.564  0.00  0.00    +0.000 A 
ATOM     21  C   UNL     1     -55.296 -46.348 -79.707  0.00  0.00    +0.000 A 
ATOM     22  N   UNL     1     -54.702 -47.215 -80.545  0.00  0.00    +0.000 NA
ATOM     23  O   UNL     1     -54.759 -48.448 -79.930  0.00  0.00    +0.000 OA
ENDBRANCH  17  21
ENDBRANCH  15  17
ENDBRANCH   1  15
BRANCH  13  24
ATOM     24  C   UNL     1     -53.281 -41.879 -76.735  0.00  0.00    +0.000 C 
ATOM     25  O   UNL     1     -52.172 -42.383 -76.693  0.00  0.00    +0.000 OA
BRANCH  24  26
ATOM     26  C   UNL     1     -53.437 -40.420 -76.886  0.00  0.00    +0.000 C 
ATOM     27  C   UNL     1     -54.632 -39.874 -77.624  0.00  0.00    +0.000 C 
ATOM     28  C   UNL     1     -53.267 -39.750 -78.229  0.00  0.00    +0.000 C 
ENDBRANCH  24  26
ENDBRANCH  13  24
TORSDOF 5
ENDMDL
MODEL 14
REMARK VINA RESULT:    -5.725     12.866     15.467
REMARK INTER + INTRA:          -8.299
REMARK INTER:                  -7.195
REMARK INTRA:                  -1.104
REMARK UNBOUND:                -0.901
REMARK  Name = 
REMARK  6 active torsions:
REMARK  status: ('A' for Active; 'I' for Inactive)
REMARK    1  A    between atoms: C_1  and  C_2
REMARK    2  A    between atoms: C_4  and  C_5
REMARK    3  A    between atoms: C_5  and  S_6
REMARK    4  A    between atoms: S_6  and  C_8
REMARK    5  A    between atoms: C_20  and  C_21
REMARK    6  A    between atoms: C_21  and  C_23
REMARK                            x       y       z     vdW  Elec       q    Type
REMARK                         _______ _______ _______ _____ _____    ______ ____
ROOT
ATOM      1  C   UNL     1     -54.971 -43.223 -78.140  0.00  0.00    +0.000 A 
ATOM      2  N   UNL     1     -55.512 -44.206 -78.991  0.00  0.00    +0.000 N 
ATOM      3  C   UNL     1     -55.965 -45.448 -78.466  0.00  0.00    +0.000 A 
ATOM      4  C   UNL     1     -56.850 -46.297 -79.156  0.00  0.00    +0.000 A 
ATOM      5 BR   UNL     1     -57.657 -45.754 -80.785  0.00  0.00    +0.000 Br
ATOM      6  C   UNL     1     -57.184 -47.562 -78.652  0.00  0.00    +0.000 A 
ATOM      7  C   UNL     1     -56.651 -47.981 -77.427  0.00  0.00    +0.000 A 
ATOM      8  C   UNL     1     -55.773 -47.156 -76.724  0.00  0.00    +0.000 A 
ATOM      9 CL   UNL     1     -55.229 -47.735 -75.191  0.00  0.00    +0.000 Cl
ATOM     10  C   UNL     1     -55.419 -45.908 -77.257  0.00  0.00    +0.000 A 
ATOM     11  C   UNL     1     -54.434 -45.006 -76.629  0.00  0.00    +0.000 A 
ATOM     12  O   UNL     1     -53.499 -45.435 -75.965  0.00  0.00    +0.000 OA
ATOM     13  C   UNL     1     -54.561 -43.534 -76.891  0.00  0.00    +0.000 A 
ATOM     14  H   UNL     1     -56.139 -43.804 -79.701  0.00  0.00    +0.000 HD
ENDROOT
BRANCH   1  15
ATOM     15  S   UNL     1     -55.308 -41.539 -78.719  0.00  0.00    +0.000 S 
ATOM     16  O   UNL     1     -56.728 -41.281 -78.295  0.00  0.00    +0.000 OA
BRANCH  15  17
ATOM     17  C   UNL     1     -55.268 -41.502 -80.535  0.00  0.00    +0.000 C 
BRANCH  17  21
ATOM     18  C   UNL     1     -50.693 -42.550 -82.582  0.00  0.00    +0.000 C 
ATOM     19  C   UNL     1     -52.048 -42.139 -82.171  0.00  0.00    +0.000 A 
ATOM     20  C   UNL     1     -52.862 -42.424 -81.101  0.00  0.00    +0.000 A 
ATOM     21  C   UNL     1     -53.999 -41.607 -81.292  0.00  0.00    +0.000 A 
ATOM     22  N   UNL     1     -53.902 -40.927 -82.448  0.00  0.00    +0.000 NA
ATOM     23  O   UNL     1     -52.680 -41.262 -82.992  0.00  0.00    +0.000 OA
ENDBRANCH  17  21
ENDBRANCH  15  17
ENDBRANCH   1  15
BRANCH  13  24
ATOM     24  C   UNL     1     -54.379 -42.692 -75.675  0.00  0.00    +0.000 C 
ATOM     25  O   UNL     1     -53.384 -42.001 -75.543  0.00  0.00    +0.000 OA
BRANCH  24  26
ATOM     26  C   UNL     1     -55.446 -42.672 -74.656  0.00  0.00    +0.000 C 
ATOM     27  C   UNL     1     -56.865 -42.978 -75.063  0.00  0.00    +0.000 C 
ATOM     28  C   UNL     1     -56.496 -41.587 -74.644  0.00  0.00    +0.000 C 
ENDBRANCH  24  26
ENDBRANCH  13  24
TORSDOF 5
ENDMDL
MODEL 15
REMARK VINA RESULT:    -5.644     11.827     14.851
REMARK INTER + INTRA:          -8.195
REMARK INTER:                  -7.112
REMARK INTRA:                  -1.082
REMARK UNBOUND:                -0.901
REMARK  Name = 
REMARK  6 active torsions:
REMARK  status: ('A' for Active; 'I' for Inactive)
REMARK    1  A    between atoms: C_1  and  C_2
REMARK    2  A    between atoms: C_4  and  C_5
REMARK    3  A    between atoms: C_5  and  S_6
REMARK    4  A    between atoms: S_6  and  C_8
REMARK    5  A    between atoms: C_20  and  C_21
REMARK    6  A    between atoms: C_21  and  C_23
REMARK                            x       y       z     vdW  Elec       q    Type
REMARK                         _______ _______ _______ _____ _____    ______ ____
ROOT
ATOM      1  C   UNL     1     -64.427 -46.032 -55.428  0.00  0.00    +0.000 A 
ATOM      2  N   UNL     1     -63.360 -46.227 -56.326  0.00  0.00    +0.000 N 
ATOM      3  C   UNL     1     -63.608 -46.417 -57.714  0.00  0.00    +0.000 A 
ATOM      4  C   UNL     1     -62.625 -46.229 -58.702  0.00  0.00    +0.000 A 
ATOM      5 BR   UNL     1     -60.919 -45.524 -58.265  0.00  0.00    +0.000 Br
ATOM      6  C   UNL     1     -62.880 -46.533 -60.047  0.00  0.00    +0.000 A 
ATOM      7  C   UNL     1     -64.143 -47.007 -60.422  0.00  0.00    +0.000 A 
ATOM      8  C   UNL     1     -65.134 -47.200 -59.459  0.00  0.00    +0.000 A 
ATOM      9 CL   UNL     1     -66.678 -47.719 -60.033  0.00  0.00    +0.000 Cl
ATOM     10  C   UNL     1     -64.854 -46.926 -58.112  0.00  0.00    +0.000 A 
ATOM     11  C   UNL     1     -65.809 -47.179 -57.016  0.00  0.00    +0.000 A 
ATOM     12  O   UNL     1     -66.633 -48.083 -57.075  0.00  0.00    +0.000 OA
ATOM     13  C   UNL     1     -65.695 -46.343 -55.776  0.00  0.00    +0.000 A 
ATOM     14  H   UNL     1     -62.566 -45.603 -56.129  0.00  0.00    +0.000 HD
ENDROOT
BRANCH   1  15
ATOM     15  S   UNL     1     -63.980 -44.958 -54.038  0.00  0.00    +0.000 S 
ATOM     16  O   UNL     1     -62.707 -44.291 -54.483  0.00  0.00    +0.000 OA
BRANCH  15  17
ATOM     17  C   UNL     1     -63.582 -45.977 -52.588  0.00  0.00    +0.000 C 
BRANCH  17  21
ATOM     18  C   UNL     1     -64.950 -50.910 -52.502  0.00  0.00    +0.000 C 
ATOM     19  C   UNL     1     -64.673 -49.470 -52.350  0.00  0.00    +0.000 A 
ATOM     20  C   UNL     1     -63.870 -48.565 -53.003  0.00  0.00    +0.000 A 
ATOM     21  C   UNL     1     -64.164 -47.325 -52.394  0.00  0.00    +0.000 A 
ATOM     22  N   UNL     1     -65.040 -47.490 -51.388  0.00  0.00    +0.000 NA
ATOM     23  O   UNL     1     -65.356 -48.832 -51.366  0.00  0.00    +0.000 OA
ENDBRANCH  17  21
ENDBRANCH  15  17
ENDBRANCH   1  15
BRANCH  13  24
ATOM     24  C   UNL     1     -67.006 -45.863 -55.254  0.00  0.00    +0.000 C 
ATOM     25  O   UNL     1     -67.673 -45.066 -55.891  0.00  0.00    +0.000 OA
BRANCH  24  26
ATOM     26  C   UNL     1     -67.505 -46.407 -53.976  0.00  0.00    +0.000 C 
ATOM     27  C   UNL     1     -68.874 -46.012 -53.487  0.00  0.00    +0.000 C 
ATOM     28  C   UNL     1     -67.658 -45.528 -52.758  0.00  0.00    +0.000 C 
ENDBRANCH  24  26
ENDBRANCH  13  24
TORSDOF 5
ENDMDL
MODEL 16
REMARK VINA RESULT:    -5.567     13.372     16.210
REMARK INTER + INTRA:          -8.096
REMARK INTER:                  -7.242
REMARK INTRA:                  -0.854
REMARK UNBOUND:                -0.901
REMARK  Name = 
REMARK  6 active torsions:
REMARK  status: ('A' for Active; 'I' for Inactive)
REMARK    1  A    between atoms: C_1  and  C_2
REMARK    2  A    between atoms: C_4  and  C_5
REMARK    3  A    between atoms: C_5  and  S_6
REMARK    4  A    between atoms: S_6  and  C_8
REMARK    5  A    between atoms: C_20  and  C_21
REMARK    6  A    between atoms: C_21  and  C_23
REMARK                            x       y       z     vdW  Elec       q    Type
REMARK                         _______ _______ _______ _____ _____    ______ ____
ROOT
ATOM      1  C   UNL     1     -55.272 -42.286 -78.962  0.00  0.00    +0.000 A 
ATOM      2  N   UNL     1     -56.650 -42.191 -79.238  0.00  0.00    +0.000 N 
ATOM      3  C   UNL     1     -57.105 -41.866 -80.545  0.00  0.00    +0.000 A 
ATOM      4  C   UNL     1     -58.414 -42.130 -80.991  0.00  0.00    +0.000 A 
ATOM      5 BR   UNL     1     -59.631 -43.116 -79.922  0.00  0.00    +0.000 Br
ATOM      6  C   UNL     1     -58.854 -41.693 -82.248  0.00  0.00    +0.000 A 
ATOM      7  C   UNL     1     -57.972 -41.007 -83.090  0.00  0.00    +0.000 A 
ATOM      8  C   UNL     1     -56.669 -40.735 -82.672  0.00  0.00    +0.000 A 
ATOM      9 CL   UNL     1     -55.639 -39.947 -83.812  0.00  0.00    +0.000 Cl
ATOM     10  C   UNL     1     -56.252 -41.146 -81.397  0.00  0.00    +0.000 A 
ATOM     11  C   UNL     1     -54.924 -40.830 -80.835  0.00  0.00    +0.000 A 
ATOM     12  O   UNL     1     -54.322 -39.808 -81.141  0.00  0.00    +0.000 OA
ATOM     13  C   UNL     1     -54.356 -41.761 -79.806  0.00  0.00    +0.000 A 
ATOM     14  H   UNL     1     -57.190 -42.942 -78.787  0.00  0.00    +0.000 HD
ENDROOT
BRANCH   1  15
ATOM     15  S   UNL     1     -54.901 -43.513 -77.682  0.00  0.00    +0.000 S 
ATOM     16  O   UNL     1     -54.756 -44.805 -78.439  0.00  0.00    +0.000 OA
BRANCH  15  17
ATOM     17  C   UNL     1     -56.332 -43.689 -76.576  0.00  0.00    +0.000 C 
BRANCH  17  21
ATOM     18  C   UNL     1     -57.756 -40.851 -72.559  0.00  0.00    +0.000 C 
ATOM     19  C   UNL     1     -57.161 -41.692 -73.614  0.00  0.00    +0.000 A 
ATOM     20  C   UNL     1     -57.622 -42.247 -74.784  0.00  0.00    +0.000 A 
ATOM     21  C   UNL     1     -56.487 -42.860 -75.359  0.00  0.00    +0.000 A 
ATOM     22  N   UNL     1     -55.423 -42.740 -74.544  0.00  0.00    +0.000 NA
ATOM     23  O   UNL     1     -55.850 -42.008 -73.456  0.00  0.00    +0.000 OA
ENDBRANCH  17  21
ENDBRANCH  15  17
ENDBRANCH   1  15
BRANCH  13  24
ATOM     24  C   UNL     1     -52.912 -42.072 -80.011  0.00  0.00    +0.000 C 
ATOM     25  O   UNL     1     -52.087 -41.765 -79.168  0.00  0.00    +0.000 OA
BRANCH  24  26
ATOM     26  C   UNL     1     -52.507 -42.798 -81.229  0.00  0.00    +0.000 C 
ATOM     27  C   UNL     1     -51.043 -42.925 -81.564  0.00  0.00    +0.000 C 
ATOM     28  C   UNL     1     -51.928 -42.070 -82.419  0.00  0.00    +0.000 C 
ENDBRANCH  24  26
ENDBRANCH  13  24
TORSDOF 5
ENDMDL
MODEL 17
REMARK VINA RESULT:    -5.566     14.562     17.333
REMARK INTER + INTRA:          -8.094
REMARK INTER:                  -7.367
REMARK INTRA:                  -0.727
REMARK UNBOUND:                -0.901
REMARK  Name = 
REMARK  6 active torsions:
REMARK  status: ('A' for Active; 'I' for Inactive)
REMARK    1  A    between atoms: C_1  and  C_2
REMARK    2  A    between atoms: C_4  and  C_5
REMARK    3  A    between atoms: C_5  and  S_6
REMARK    4  A    between atoms: S_6  and  C_8
REMARK    5  A    between atoms: C_20  and  C_21
REMARK    6  A    between atoms: C_21  and  C_23
REMARK                            x       y       z     vdW  Elec       q    Type
REMARK                         _______ _______ _______ _____ _____    ______ ____
ROOT
ATOM      1  C   UNL     1     -66.140 -49.600 -54.515  0.00  0.00    +0.000 A 
ATOM      2  N   UNL     1     -66.916 -50.622 -55.096  0.00  0.00    +0.000 N 
ATOM      3  C   UNL     1     -67.474 -51.653 -54.292  0.00  0.00    +0.000 A 
ATOM      4  C   UNL     1     -68.549 -52.459 -54.713  0.00  0.00    +0.000 A 
ATOM      5 BR   UNL     1     -69.462 -52.103 -56.337  0.00  0.00    +0.000 Br
ATOM      6  C   UNL     1     -68.996 -53.536 -53.935  0.00  0.00    +0.000 A 
ATOM      7  C   UNL     1     -68.383 -53.803 -52.705  0.00  0.00    +0.000 A 
ATOM      8  C   UNL     1     -67.317 -53.017 -52.266  0.00  0.00    +0.000 A 
ATOM      9 CL   UNL     1     -66.679 -53.383 -50.704  0.00  0.00    +0.000 Cl
ATOM     10  C   UNL     1     -66.856 -51.964 -53.071  0.00  0.00    +0.000 A 
ATOM     11  C   UNL     1     -65.684 -51.135 -52.731  0.00  0.00    +0.000 A 
ATOM     12  O   UNL     1     -64.745 -51.581 -52.083  0.00  0.00    +0.000 OA
ATOM     13  C   UNL     1     -65.630 -49.737 -53.271  0.00  0.00    +0.000 A 
ATOM     14  H   UNL     1     -67.561 -50.261 -55.813  0.00  0.00    +0.000 HD
ENDROOT
BRANCH   1  15
ATOM     15  S   UNL     1     -66.302 -48.021 -55.389  0.00  0.00    +0.000 S 
ATOM     16  O   UNL     1     -67.242 -47.219 -54.531  0.00  0.00    +0.000 OA
BRANCH  15  17
ATOM     17  C   UNL     1     -67.121 -48.292 -56.987  0.00  0.00    +0.000 C 
BRANCH  17  21
ATOM     18  C   UNL     1     -66.727 -44.489 -60.393  0.00  0.00    +0.000 C 
ATOM     19  C   UNL     1     -66.714 -45.694 -59.544  0.00  0.00    +0.000 A 
ATOM     20  C   UNL     1     -67.213 -46.007 -58.301  0.00  0.00    +0.000 A 
ATOM     21  C   UNL     1     -66.919 -47.379 -58.136  0.00  0.00    +0.000 A 
ATOM     22  N   UNL     1     -66.222 -47.842 -59.188  0.00  0.00    +0.000 NA
ATOM     23  O   UNL     1     -66.099 -46.785 -60.066  0.00  0.00    +0.000 OA
ENDBRANCH  17  21
ENDBRANCH  15  17
ENDBRANCH   1  15
BRANCH  13  24
ATOM     24  C   UNL     1     -65.182 -48.725 -52.273  0.00  0.00    +0.000 C 
ATOM     25  O   UNL     1     -65.849 -48.499 -51.278  0.00  0.00    +0.000 OA
BRANCH  24  26
ATOM     26  C   UNL     1     -63.895 -48.036 -52.486  0.00  0.00    +0.000 C 
ATOM     27  C   UNL     1     -63.441 -46.993 -51.498  0.00  0.00    +0.000 C 
ATOM     28  C   UNL     1     -63.842 -46.580 -52.881  0.00  0.00    +0.000 C 
ENDBRANCH  24  26
ENDBRANCH  13  24
TORSDOF 5
ENDMDL
MODEL 18
REMARK VINA RESULT:    -5.499     11.487     14.856
REMARK INTER + INTRA:          -8.008
REMARK INTER:                  -6.868
REMARK INTRA:                  -1.141
REMARK UNBOUND:                -0.901
REMARK  Name = 
REMARK  6 active torsions:
REMARK  status: ('A' for Active; 'I' for Inactive)
REMARK    1  A    between atoms: C_1  and  C_2
REMARK    2  A    between atoms: C_4  and  C_5
REMARK    3  A    between atoms: C_5  and  S_6
REMARK    4  A    between atoms: S_6  and  C_8
REMARK    5  A    between atoms: C_20  and  C_21
REMARK    6  A    between atoms: C_21  and  C_23
REMARK                            x       y       z     vdW  Elec       q    Type
REMARK                         _______ _______ _______ _____ _____    ______ ____
ROOT
ATOM      1  C   UNL     1     -57.836 -44.538 -77.875  0.00  0.00    +0.000 A 
ATOM      2  N   UNL     1     -56.881 -45.122 -77.021  0.00  0.00    +0.000 N 
ATOM      3  C   UNL     1     -56.633 -46.522 -77.061  0.00  0.00    +0.000 A 
ATOM      4  C   UNL     1     -55.462 -47.109 -76.547  0.00  0.00    +0.000 A 
ATOM      5 BR   UNL     1     -54.028 -46.042 -75.912  0.00  0.00    +0.000 Br
ATOM      6  C   UNL     1     -55.306 -48.502 -76.508  0.00  0.00    +0.000 A 
ATOM      7  C   UNL     1     -56.318 -49.326 -77.013  0.00  0.00    +0.000 A 
ATOM      8  C   UNL     1     -57.487 -48.767 -77.530  0.00  0.00    +0.000 A 
ATOM      9 CL   UNL     1     -58.642 -49.865 -78.194  0.00  0.00    +0.000 Cl
ATOM     10  C   UNL     1     -57.646 -47.372 -77.531  0.00  0.00    +0.000 A 
ATOM     11  C   UNL     1     -58.879 -46.695 -77.977  0.00  0.00    +0.000 A 
ATOM     12  O   UNL     1     -59.979 -47.221 -77.865  0.00  0.00    +0.000 OA
ATOM     13  C   UNL     1     -58.761 -45.296 -78.505  0.00  0.00    +0.000 A 
ATOM     14  H   UNL     1     -56.027 -44.552 -76.944  0.00  0.00    +0.000 HD
ENDROOT
BRANCH   1  15
ATOM     15  S   UNL     1     -57.401 -42.845 -78.353  0.00  0.00    +0.000 S 
ATOM     16  O   UNL     1     -56.038 -42.631 -77.754  0.00  0.00    +0.000 OA
BRANCH  15  17
ATOM     17  C   UNL     1     -58.537 -41.677 -77.549  0.00  0.00    +0.000 C 
BRANCH  17  21
ATOM     18  C   UNL     1     -58.649 -41.482 -72.433  0.00  0.00    +0.000 C 
ATOM     19  C   UNL     1     -58.479 -41.376 -73.895  0.00  0.00    +0.000 A 
ATOM     20  C   UNL     1     -58.922 -42.102 -74.975  0.00  0.00    +0.000 A 
ATOM     21  C   UNL     1     -58.461 -41.383 -76.099  0.00  0.00    +0.000 A 
ATOM     22  N   UNL     1     -57.724 -40.326 -75.714  0.00  0.00    +0.000 NA
ATOM     23  O   UNL     1     -57.740 -40.326 -74.335  0.00  0.00    +0.000 OA
ENDBRANCH  17  21
ENDBRANCH  15  17
ENDBRANCH   1  15
BRANCH  13  24
ATOM     24  C   UNL     1     -59.562 -45.052 -79.738  0.00  0.00    +0.000 C 
ATOM     25  O   UNL     1     -59.258 -45.586 -80.790  0.00  0.00    +0.000 OA
BRANCH  24  26
ATOM     26  C   UNL     1     -60.757 -44.191 -79.651  0.00  0.00    +0.000 C 
ATOM     27  C   UNL     1     -61.400 -43.950 -78.310  0.00  0.00    +0.000 C 
ATOM     28  C   UNL     1     -62.117 -44.769 -79.339  0.00  0.00    +0.000 C 
ENDBRANCH  24  26
ENDBRANCH  13  24
TORSDOF 5
ENDMDL
MODEL 19
REMARK VINA RESULT:    -5.379     10.193     12.363
REMARK INTER + INTRA:          -7.853
REMARK INTER:                  -6.852
REMARK INTRA:                  -1.001
REMARK UNBOUND:                -0.901
REMARK  Name = 
REMARK  6 active torsions:
REMARK  status: ('A' for Active; 'I' for Inactive)
REMARK    1  A    between atoms: C_1  and  C_2
REMARK    2  A    between atoms: C_4  and  C_5
REMARK    3  A    between atoms: C_5  and  S_6
REMARK    4  A    between atoms: S_6  and  C_8
REMARK    5  A    between atoms: C_20  and  C_21
REMARK    6  A    between atoms: C_21  and  C_23
REMARK                            x       y       z     vdW  Elec       q    Type
REMARK                         _______ _______ _______ _____ _____    ______ ____
ROOT
ATOM      1  C   UNL     1     -64.301 -43.409 -69.575  0.00  0.00    +0.000 A 
ATOM      2  N   UNL     1     -65.313 -43.540 -68.605  0.00  0.00    +0.000 N 
ATOM      3  C   UNL     1     -65.740 -42.414 -67.848  0.00  0.00    +0.000 A 
ATOM      4  C   UNL     1     -66.970 -42.369 -67.166  0.00  0.00    +0.000 A 
ATOM      5 BR   UNL     1     -68.247 -43.758 -67.358  0.00  0.00    +0.000 Br
ATOM      6  C   UNL     1     -67.303 -41.285 -66.341  0.00  0.00    +0.000 A 
ATOM      7  C   UNL     1     -66.411 -40.214 -66.212  0.00  0.00    +0.000 A 
ATOM      8  C   UNL     1     -65.187 -40.235 -66.880  0.00  0.00    +0.000 A 
ATOM      9 CL   UNL     1     -64.190 -38.835 -66.713  0.00  0.00    +0.000 Cl
ATOM     10  C   UNL     1     -64.850 -41.342 -67.674  0.00  0.00    +0.000 A 
ATOM     11  C   UNL     1     -63.546 -41.493 -68.347  0.00  0.00    +0.000 A 
ATOM     12  O   UNL     1     -62.520 -41.011 -67.882  0.00  0.00    +0.000 OA
ATOM     13  C   UNL     1     -63.489 -42.329 -69.592  0.00  0.00    +0.000 A 
ATOM     14  H   UNL     1     -66.085 -44.139 -68.927  0.00  0.00    +0.000 HD
ENDROOT
BRANCH   1  15
ATOM     15  S   UNL     1     -64.520 -44.546 -70.969  0.00  0.00    +0.000 S 
ATOM     16  O   UNL     1     -63.205 -45.271 -71.065  0.00  0.00    +0.000 OA
BRANCH  15  17
ATOM     17  C   UNL     1     -64.730 -43.594 -72.502  0.00  0.00    +0.000 C 
BRANCH  17  21
ATOM     18  C   UNL     1     -68.444 -40.075 -72.686  0.00  0.00    +0.000 C 
ATOM     19  C   UNL     1     -67.455 -41.161 -72.816  0.00  0.00    +0.000 A 
ATOM     20  C   UNL     1     -66.336 -41.539 -72.113  0.00  0.00    +0.000 A 
ATOM     21  C   UNL     1     -65.913 -42.735 -72.734  0.00  0.00    +0.000 A 
ATOM     22  N   UNL     1     -66.693 -43.018 -73.793  0.00  0.00    +0.000 NA
ATOM     23  O   UNL     1     -67.656 -42.031 -73.838  0.00  0.00    +0.000 OA
ENDBRANCH  17  21
ENDBRANCH  15  17
ENDBRANCH   1  15
BRANCH  13  24
ATOM     24  C   UNL     1     -62.677 -41.721 -70.685  0.00  0.00    +0.000 C 
ATOM     25  O   UNL     1     -63.033 -40.685 -71.218  0.00  0.00    +0.000 OA
BRANCH  24  26
ATOM     26  C   UNL     1     -61.413 -42.371 -71.077  0.00  0.00    +0.000 C 
ATOM     27  C   UNL     1     -60.408 -41.604 -71.898  0.00  0.00    +0.000 C 
ATOM     28  C   UNL     1     -61.143 -42.756 -72.512  0.00  0.00    +0.000 C 
ENDBRANCH  24  26
ENDBRANCH  13  24
TORSDOF 5
ENDMDL
MODEL 20
REMARK VINA RESULT:    -5.341      3.748      6.070
REMARK INTER + INTRA:          -7.804
REMARK INTER:                  -6.912
REMARK INTRA:                  -0.892
REMARK UNBOUND:                -0.901
REMARK  Name = 
REMARK  6 active torsions:
REMARK  status: ('A' for Active; 'I' for Inactive)
REMARK    1  A    between atoms: C_1  and  C_2
REMARK    2  A    between atoms: C_4  and  C_5
REMARK    3  A    between atoms: C_5  and  S_6
REMARK    4  A    between atoms: S_6  and  C_8
REMARK    5  A    between atoms: C_20  and  C_21
REMARK    6  A    between atoms: C_21  and  C_23
REMARK                            x       y       z     vdW  Elec       q    Type
REMARK                         _______ _______ _______ _____ _____    ______ ____
ROOT
ATOM      1  C   UNL     1     -57.730 -40.072 -62.919  0.00  0.00    +0.000 A 
ATOM      2  N   UNL     1     -57.544 -38.831 -62.280  0.00  0.00    +0.000 N 
ATOM      3  C   UNL     1     -56.580 -37.905 -62.764  0.00  0.00    +0.000 A 
ATOM      4  C   UNL     1     -56.603 -36.535 -62.444  0.00  0.00    +0.000 A 
ATOM      5 BR   UNL     1     -58.047 -35.780 -61.472  0.00  0.00    +0.000 Br
ATOM      6  C   UNL     1     -55.572 -35.677 -62.852  0.00  0.00    +0.000 A 
ATOM      7  C   UNL     1     -54.513 -36.182 -63.615  0.00  0.00    +0.000 A 
ATOM      8  C   UNL     1     -54.469 -37.537 -63.947  0.00  0.00    +0.000 A 
ATOM      9 CL   UNL     1     -53.160 -38.045 -64.951  0.00  0.00    +0.000 Cl
ATOM     10  C   UNL     1     -55.489 -38.391 -63.502  0.00  0.00    +0.000 A 
ATOM     11  C   UNL     1     -55.484 -39.849 -63.729  0.00  0.00    +0.000 A 
ATOM     12  O   UNL     1     -54.441 -40.486 -63.814  0.00  0.00    +0.000 OA
ATOM     13  C   UNL     1     -56.806 -40.558 -63.777  0.00  0.00    +0.000 A 
ATOM     14  H   UNL     1     -58.436 -38.396 -62.008  0.00  0.00    +0.000 HD
ENDROOT
BRANCH   1  15
ATOM     15  S   UNL     1     -59.442 -40.658 -62.818  0.00  0.00    +0.000 S 
ATOM     16  O   UNL     1     -60.233 -39.429 -62.463  0.00  0.00    +0.000 OA
BRANCH  15  17
ATOM     17  C   UNL     1     -59.603 -41.826 -61.436  0.00  0.00    +0.000 C 
BRANCH  17  21
ATOM     18  C   UNL     1     -56.078 -41.931 -57.723  0.00  0.00    +0.000 C 
ATOM     19  C   UNL     1     -57.186 -41.746 -58.679  0.00  0.00    +0.000 A 
ATOM     20  C   UNL     1     -57.492 -42.263 -59.915  0.00  0.00    +0.000 A 
ATOM     21  C   UNL     1     -58.761 -41.722 -60.221  0.00  0.00    +0.000 A 
ATOM     22  N   UNL     1     -59.158 -40.876 -59.255  0.00  0.00    +0.000 NA
ATOM     23  O   UNL     1     -58.171 -40.896 -58.293  0.00  0.00    +0.000 OA
ENDBRANCH  17  21
ENDBRANCH  15  17
ENDBRANCH   1  15
BRANCH  13  24
ATOM     24  C   UNL     1     -56.912 -41.554 -64.881  0.00  0.00    +0.000 C 
ATOM     25  O   UNL     1     -57.220 -41.201 -66.006  0.00  0.00    +0.000 OA
BRANCH  24  26
ATOM     26  C   UNL     1     -56.592 -42.966 -64.598  0.00  0.00    +0.000 C 
ATOM     27  C   UNL     1     -57.588 -43.817 -63.852  0.00  0.00    +0.000 C 
ATOM     28  C   UNL     1     -56.298 -43.436 -63.193  0.00  0.00    +0.000 C 
ENDBRANCH  24  26
ENDBRANCH  13  24
TORSDOF 5
ENDMDL
