REMARK VINA RESULT:    -6.039     15.286     16.567
REMARK INTER + INTRA:          -8.302
REMARK INTER:                  -7.272
REMARK INTRA:                  -1.030
REMARK UNBOUND:                -0.850
REMARK  Name = 
REMARK  6 active torsions:
REMARK  status: ('A' for Active; 'I' for Inactive)
REMARK    1  A    between atoms: C_1  and  C_2
REMARK    2  A    between atoms: C_2  and  C_4
REMARK    3  A    between atoms: C_5  and  S_6
REMARK    4  A    between atoms: S_6  and  C_8
REMARK    5  A    between atoms: C_8  and  C_9
REMARK    6  A    between atoms: C_11  and  C_12
REMARK                            x       y       z     vdW  Elec       q    Type
REMARK                         _______ _______ _______ _____ _____    ______ ____
ROOT
ATOM      1  C   UNL     1     -53.408 -41.843 -77.845  0.00  0.00    +0.000 A 
ATOM      2  C   UNL     1     -54.746 -41.746 -78.013  0.00  0.00    +0.000 A 
ATOM      3  N   UNL     1     -55.368 -41.912 -79.233  0.00  0.00    +0.000 N 
ATOM      4  C   UNL     1     -54.669 -42.146 -80.428  0.00  0.00    +0.000 A 
ATOM      5  C   UNL     1     -55.353 -42.409 -81.627  0.00  0.00    +0.000 A 
ATOM      6 BR   UNL     1     -57.255 -42.392 -81.690  0.00  0.00    +0.000 Br
ATOM      7  C   UNL     1     -54.664 -42.698 -82.801  0.00  0.00    +0.000 A 
ATOM      8  C   UNL     1     -53.273 -42.735 -82.788  0.00  0.00    +0.000 A 
ATOM      9  C   UNL     1     -52.567 -42.504 -81.602  0.00  0.00    +0.000 A 
ATOM     10 CL   UNL     1     -50.845 -42.596 -81.739  0.00  0.00    +0.000 Cl
ATOM     11  C   UNL     1     -53.266 -42.235 -80.409  0.00  0.00    +0.000 A 
ATOM     12  C   UNL     1     -52.594 -42.003 -79.104  0.00  0.00    +0.000 A 
ATOM     13  O   UNL     1     -51.373 -41.894 -79.042  0.00  0.00    +0.000 OA
ATOM     14  H   UNL     1     -56.302 -41.514 -79.326  0.00  0.00    +0.000 HD
ENDROOT
BRANCH   1  16
ATOM     15  C   UNL     1     -52.658 -43.016 -75.662  0.00  0.00    +0.000 C 
ATOM     16  C   UNL     1     -52.697 -41.772 -76.523  0.00  0.00    +0.000 C 
ATOM     17  O   UNL     1     -52.189 -40.730 -76.111  0.00  0.00    +0.000 OA
ENDBRANCH   1  16
BRANCH   2  18
ATOM     18  S   UNL     1     -55.831 -41.237 -76.640  0.00  0.00    +0.000 S 
ATOM     19  O   UNL     1     -56.538 -40.022 -77.181  0.00  0.00    +0.000 OA
BRANCH  18  20
ATOM     20  C   UNL     1     -57.044 -42.593 -76.708  0.00  0.00    +0.000 C 
BRANCH  20  21
ATOM     21  C   UNL     1     -56.392 -43.936 -76.687  0.00  0.00    +0.000 A 
ATOM     22  C   UNL     1     -55.872 -44.659 -75.581  0.00  0.00    +0.000 A 
ATOM     23  C   UNL     1     -55.481 -45.865 -76.109  0.00  0.00    +0.000 A 
ATOM     24  C   UNL     1     -54.888 -47.094 -75.551  0.00  0.00    +0.000 C 
ATOM     25  O   UNL     1     -55.736 -45.868 -77.444  0.00  0.00    +0.000 OA
ATOM     26  N   UNL     1     -56.313 -44.664 -77.810  0.00  0.00    +0.000 NA
ENDBRANCH  20  21
ENDBRANCH  18  20
ENDBRANCH   2  18
TORSDOF 4
