REMARK  Name = 
REMARK  6 active torsions:
REMARK  status: ('A' for Active; 'I' for Inactive)
REMARK    1  A    between atoms: C_1  and  C_2
REMARK    2  A    between atoms: C_2  and  C_4
REMARK    3  A    between atoms: C_5  and  S_6
REMARK    4  A    between atoms: S_6  and  C_8
REMARK    5  A    between atoms: C_8  and  C_9
REMARK    6  A    between atoms: C_11  and  C_12
REMARK                            x       y       z     vdW  Elec       q    Type
REMARK                         _______ _______ _______ _____ _____    ______ ____
ROOT
ATOM      1  C   UNL     1       3.119  -0.837   1.055  0.00  0.00    +0.000 A 
ATOM      2  C   UNL     1       2.821  -2.151   1.167  0.00  0.00    +0.000 A 
ATOM      3  N   UNL     1       3.448  -2.994   2.060  0.00  0.00    +0.000 N 
ATOM      4  C   UNL     1       4.492  -2.583   2.904  0.00  0.00    +0.000 A 
ATOM      5  C   UNL     1       5.030  -3.453   3.867  0.00  0.00    +0.000 A 
ATOM      6 BR   UNL     1       4.407  -5.245   4.020  0.00  0.00    +0.000 Br
ATOM      7  C   UNL     1       6.025  -3.032   4.744  0.00  0.00    +0.000 A 
ATOM      8  C   UNL     1       6.493  -1.723   4.672  0.00  0.00    +0.000 A 
ATOM      9  C   UNL     1       5.956  -0.827   3.740  0.00  0.00    +0.000 A 
ATOM     10 CL   UNL     1       6.628   0.767   3.778  0.00  0.00    +0.000 Cl
ATOM     11  C   UNL     1       4.932  -1.248   2.869  0.00  0.00    +0.000 A 
ATOM     12  C   UNL     1       4.292  -0.354   1.869  0.00  0.00    +0.000 A 
ATOM     13  O   UNL     1       4.739   0.770   1.662  0.00  0.00    +0.000 OA
ATOM     14  H   UNL     1       3.397  -3.992   1.857  0.00  0.00    +0.000 HD
ENDROOT
BRANCH   1  16
ATOM     15  C   UNL     1       2.381   1.599   0.577  0.00  0.00    +0.000 C 
ATOM     16  C   UNL     1       2.395   0.140   0.172  0.00  0.00    +0.000 C 
ATOM     17  O   UNL     1       1.787  -0.218  -0.835  0.00  0.00    +0.000 OA
ENDBRANCH   1  16
BRANCH   2  18
ATOM     18  S   UNL     1       1.648  -2.949   0.023  0.00  0.00    +0.000 S 
ATOM     19  O   UNL     1       2.472  -4.026  -0.632  0.00  0.00    +0.000 OA
BRANCH  18  20
ATOM     20  C   UNL     1       0.588  -3.798   1.236  0.00  0.00    +0.000 C 
BRANCH  20  21
ATOM     21  C   UNL     1      -0.512  -4.568   0.583  0.00  0.00    +0.000 A 
ATOM     22  C   UNL     1      -0.424  -5.651  -0.330  0.00  0.00    +0.000 A 
ATOM     23  C   UNL     1      -1.725  -6.040  -0.533  0.00  0.00    +0.000 A 
ATOM     24  C   UNL     1      -2.376  -7.099  -1.326  0.00  0.00    +0.000 C 
ATOM     25  O   UNL     1      -2.546  -5.240   0.198  0.00  0.00    +0.000 OA
ATOM     26  N   UNL     1      -1.790  -4.320   0.904  0.00  0.00    +0.000 NA
ENDBRANCH  20  21
ENDBRANCH  18  20
ENDBRANCH   2  18
TORSDOF 4
