REMARK VINA RESULT:    -5.480      4.463      5.712
REMARK INTER + INTRA:          -7.521
REMARK INTER:                  -6.702
REMARK INTRA:                  -0.819
REMARK UNBOUND:                -0.760
REMARK  Name = 
REMARK  6 active torsions:
REMARK  status: ('A' for Active; 'I' for Inactive)
REMARK    1  A    between atoms: C_1  and  C_2
REMARK    2  A    between atoms: C_2  and  C_4
REMARK    3  A    between atoms: C_5  and  S_6
REMARK    4  A    between atoms: S_6  and  C_8
REMARK    5  A    between atoms: C_8  and  C_9
REMARK    6  A    between atoms: C_11  and  C_12
REMARK                            x       y       z     vdW  Elec       q    Type
REMARK                         _______ _______ _______ _____ _____    ______ ____
ROOT
ATOM      1  C   UNL     1     -58.799 -38.504 -62.100  0.00  0.00    +0.000 A 
ATOM      2  C   UNL     1     -58.411 -37.229 -61.852  0.00  0.00    +0.000 A 
ATOM      3  N   UNL     1     -57.189 -36.722 -62.245  0.00  0.00    +0.000 N 
ATOM      4  C   UNL     1     -56.198 -37.501 -62.862  0.00  0.00    +0.000 A 
ATOM      5  C   UNL     1     -54.995 -36.918 -63.305  0.00  0.00    +0.000 A 
ATOM      6 BR   UNL     1     -54.651 -35.068 -63.042  0.00  0.00    +0.000 Br
ATOM      7  C   UNL     1     -54.029 -37.676 -63.963  0.00  0.00    +0.000 A 
ATOM      8  C   UNL     1     -54.252 -39.033 -64.184  0.00  0.00    +0.000 A 
ATOM      9  C   UNL     1     -55.452 -39.629 -63.774  0.00  0.00    +0.000 A 
ATOM     10 CL   UNL     1     -55.579 -41.321 -64.111  0.00  0.00    +0.000 Cl
ATOM     11  C   UNL     1     -56.444 -38.857 -63.141  0.00  0.00    +0.000 A 
ATOM     12  C   UNL     1     -57.763 -39.402 -62.725  0.00  0.00    +0.000 A 
ATOM     13  O   UNL     1     -58.005 -40.596 -62.853  0.00  0.00    +0.000 OA
ATOM     14  H   UNL     1     -56.861 -35.900 -61.738  0.00  0.00    +0.000 HD
ENDROOT
BRANCH   1  16
ATOM     15  C   UNL     1     -60.315 -39.828 -60.468  0.00  0.00    +0.000 C 
ATOM     16  C   UNL     1     -60.151 -39.071 -61.767  0.00  0.00    +0.000 C 
ATOM     17  O   UNL     1     -61.109 -38.966 -62.536  0.00  0.00    +0.000 OA
ENDBRANCH   1  16
BRANCH   2  18
ATOM     18  S   UNL     1     -59.438 -36.109 -60.844  0.00  0.00    +0.000 S 
ATOM     19  O   UNL     1     -59.220 -36.604 -59.440  0.00  0.00    +0.000 OA
BRANCH  18  20
ATOM     20  C   UNL     1     -58.443 -34.583 -61.001  0.00  0.00    +0.000 C 
BRANCH  20  21
ATOM     21  C   UNL     1     -59.033 -33.635 -61.989  0.00  0.00    +0.000 A 
ATOM     22  C   UNL     1     -58.377 -32.827 -62.952  0.00  0.00    +0.000 A 
ATOM     23  C   UNL     1     -59.396 -32.227 -63.652  0.00  0.00    +0.000 A 
ATOM     24  C   UNL     1     -59.456 -31.289 -64.788  0.00  0.00    +0.000 C 
ATOM     25  O   UNL     1     -60.587 -32.639 -63.141  0.00  0.00    +0.000 OA
ATOM     26  N   UNL     1     -60.364 -33.526 -62.103  0.00  0.00    +0.000 NA
ENDBRANCH  20  21
ENDBRANCH  18  20
ENDBRANCH   2  18
TORSDOF 4
