REMARK VINA RESULT:    -6.147     11.437     14.058
REMARK INTER + INTRA:          -8.942
REMARK INTER:                  -8.138
REMARK INTRA:                  -0.803
REMARK UNBOUND:                -0.998
REMARK  Name = 
REMARK  6 active torsions:
REMARK  status: ('A' for Active; 'I' for Inactive)
REMARK    1  A    between atoms: C_1  and  C_2
REMARK    2  A    between atoms: C_4  and  C_5
REMARK    3  A    between atoms: C_5  and  S_6
REMARK    4  A    between atoms: S_6  and  C_8
REMARK    5  A    between atoms: C_20  and  C_21
REMARK    6  A    between atoms: C_21  and  C_23
REMARK                            x       y       z     vdW  Elec       q    Type
REMARK                         _______ _______ _______ _____ _____    ______ ____
ROOT
ATOM      1  C   UNL     1     -57.619 -43.325 -77.312  0.00  0.00    +0.000 A 
ATOM      2  N   UNL     1     -57.858 -44.617 -77.819  0.00  0.00    +0.000 N 
ATOM      3  C   UNL     1     -57.123 -45.732 -77.331  0.00  0.00    +0.000 A 
ATOM      4  C   UNL     1     -57.554 -47.063 -77.487  0.00  0.00    +0.000 A 
ATOM      5 BR   UNL     1     -59.260 -47.461 -78.214  0.00  0.00    +0.000 Br
ATOM      6  C   UNL     1     -56.747 -48.138 -77.089  0.00  0.00    +0.000 A 
ATOM      7  C   UNL     1     -55.502 -47.889 -76.501  0.00  0.00    +0.000 A 
ATOM      8  C   UNL     1     -55.054 -46.578 -76.334  0.00  0.00    +0.000 A 
ATOM      9 CL   UNL     1     -53.538 -46.375 -75.533  0.00  0.00    +0.000 Cl
ATOM     10  C   UNL     1     -55.856 -45.512 -76.769  0.00  0.00    +0.000 A 
ATOM     11  C   UNL     1     -55.431 -44.100 -76.713  0.00  0.00    +0.000 A 
ATOM     12  O   UNL     1     -54.254 -43.776 -76.808  0.00  0.00    +0.000 OA
ATOM     13  C   UNL     1     -56.496 -43.048 -76.614  0.00  0.00    +0.000 A 
ATOM     14  H   UNL     1     -58.861 -44.806 -77.948  0.00  0.00    +0.000 HD
ENDROOT
BRANCH   1  15
ATOM     15  S   UNL     1     -59.109 -42.293 -77.306  0.00  0.00    +0.000 S 
ATOM     16  O   UNL     1     -60.243 -43.282 -77.331  0.00  0.00    +0.000 OA
BRANCH  15  17
ATOM     17  C   UNL     1     -59.190 -41.335 -78.848  0.00  0.00    +0.000 C 
BRANCH  17  21
ATOM     18  C   UNL     1     -62.045 -37.094 -79.129  0.00  0.00    +0.000 C 
ATOM     19  C   UNL     1     -61.353 -38.395 -79.197  0.00  0.00    +0.000 A 
ATOM     20  C   UNL     1     -60.216 -38.916 -78.626  0.00  0.00    +0.000 A 
ATOM     21  C   UNL     1     -60.191 -40.263 -79.052  0.00  0.00    +0.000 A 
ATOM     22  N   UNL     1     -61.215 -40.513 -79.887  0.00  0.00    +0.000 NA
ATOM     23  O   UNL     1     -61.939 -39.342 -79.972  0.00  0.00    +0.000 OA
ENDBRANCH  17  21
ENDBRANCH  15  17
ENDBRANCH   1  15
BRANCH  13  24
ATOM     24  C   UNL     1     -56.188 -41.974 -75.627  0.00  0.00    +0.000 C 
ATOM     25  O   UNL     1     -55.916 -40.847 -76.003  0.00  0.00    +0.000 OA
BRANCH  24  26
ATOM     26  C   UNL     1     -56.264 -42.287 -74.188  0.00  0.00    +0.000 C 
ATOM     27  C   UNL     1     -57.409 -43.120 -73.670  0.00  0.00    +0.000 C 
ATOM     28  C   UNL     1     -57.324 -41.669 -73.307  0.00  0.00    +0.000 C 
ENDBRANCH  24  26
ENDBRANCH  13  24
TORSDOF 5
