REMARK VINA RESULT:    -5.988     12.557     14.601
REMARK INTER + INTRA:          -8.612
REMARK INTER:                  -7.646
REMARK INTRA:                  -0.966
REMARK UNBOUND:                -0.873
REMARK  Name = 
REMARK  6 active torsions:
REMARK  status: ('A' for Active; 'I' for Inactive)
REMARK    1  A    between atoms: C_1  and  C_2
REMARK    2  A    between atoms: C_4  and  C_5
REMARK    3  A    between atoms: C_5  and  S_6
REMARK    4  A    between atoms: S_6  and  C_8
REMARK    5  A    between atoms: C_20  and  C_21
REMARK    6  A    between atoms: C_21  and  C_23
REMARK                            x       y       z     vdW  Elec       q    Type
REMARK                         _______ _______ _______ _____ _____    ______ ____
ROOT
ATOM      1  C   UNL     1     -56.707 -38.172 -62.516  0.00  0.00    +0.000 A 
ATOM      2  N   UNL     1     -56.677 -39.519 -62.928  0.00  0.00    +0.000 N 
ATOM      3  C   UNL     1     -55.492 -40.080 -63.479  0.00  0.00    +0.000 A 
ATOM      4  C   UNL     1     -55.259 -41.466 -63.545  0.00  0.00    +0.000 A 
ATOM      5 BR   UNL     1     -56.447 -42.700 -62.730  0.00  0.00    +0.000 Br
ATOM      6  C   UNL     1     -54.128 -41.981 -64.196  0.00  0.00    +0.000 A 
ATOM      7  C   UNL     1     -53.199 -41.104 -64.767  0.00  0.00    +0.000 A 
ATOM      8  C   UNL     1     -53.408 -39.726 -64.712  0.00  0.00    +0.000 A 
ATOM      9 CL   UNL     1     -52.168 -38.728 -65.381  0.00  0.00    +0.000 Cl
ATOM     10  C   UNL     1     -54.561 -39.225 -64.089  0.00  0.00    +0.000 A 
ATOM     11  C   UNL     1     -54.910 -37.791 -64.057  0.00  0.00    +0.000 A 
ATOM     12  O   UNL     1     -54.579 -37.027 -64.955  0.00  0.00    +0.000 OA
ATOM     13  C   UNL     1     -55.759 -37.299 -62.923  0.00  0.00    +0.000 A 
ATOM     14  H   UNL     1     -57.160 -40.140 -62.264  0.00  0.00    +0.000 HD
ENDROOT
BRANCH   1  15
ATOM     15  S   UNL     1     -57.816 -37.899 -61.109  0.00  0.00    +0.000 S 
ATOM     16  O   UNL     1     -56.889 -37.723 -59.937  0.00  0.00    +0.000 OA
BRANCH  15  17
ATOM     17  C   UNL     1     -58.795 -39.399 -60.808  0.00  0.00    +0.000 C 
BRANCH  17  21
ATOM     18  C   UNL     1     -63.292 -40.003 -63.181  0.00  0.00    +0.000 C 
ATOM     19  C   UNL     1     -61.912 -39.927 -62.667  0.00  0.00    +0.000 A 
ATOM     20  C   UNL     1     -61.319 -39.345 -61.572  0.00  0.00    +0.000 A 
ATOM     21  C   UNL     1     -59.967 -39.750 -61.643  0.00  0.00    +0.000 A 
ATOM     22  N   UNL     1     -59.749 -40.473 -62.755  0.00  0.00    +0.000 NA
ATOM     23  O   UNL     1     -60.969 -40.582 -63.390  0.00  0.00    +0.000 OA
ENDBRANCH  17  21
ENDBRANCH  15  17
ENDBRANCH   1  15
BRANCH  13  24
ATOM     24  C   UNL     1     -55.290 -36.010 -62.339  0.00  0.00    +0.000 C 
ATOM     25  O   UNL     1     -54.425 -35.997 -61.481  0.00  0.00    +0.000 OA
BRANCH  24  26
ATOM     26  C   UNL     1     -55.858 -34.749 -62.851  0.00  0.00    +0.000 C 
ATOM     27  C   UNL     1     -56.241 -33.660 -61.882  0.00  0.00    +0.000 C 
ATOM     28  C   UNL     1     -57.310 -34.397 -62.630  0.00  0.00    +0.000 C 
ENDBRANCH  24  26
ENDBRANCH  13  24
TORSDOF 5
