REMARK VINA RESULT:    -5.212     11.210     14.294
REMARK INTER + INTRA:          -7.654
REMARK INTER:                  -6.510
REMARK INTRA:                  -1.145
REMARK UNBOUND:                -0.920
REMARK  Name = 
REMARK  8 active torsions:
REMARK  status: ('A' for Active; 'I' for Inactive)
REMARK    1  A    between atoms: C_1  and  C_2
REMARK    2  A    between atoms: C_4  and  C_5
REMARK    3  A    between atoms: C_5  and  S_6
REMARK    4  A    between atoms: S_6  and  C_8
REMARK    5  A    between atoms: C_20  and  C_21
REMARK    6  A    between atoms: C_21  and  C_23
REMARK    7  A    between atoms: C_23  and  C_24
REMARK    8  A    between atoms: C_23  and  C_25
REMARK                            x       y       z     vdW  Elec       q    Type
REMARK                         _______ _______ _______ _____ _____    ______ ____
ROOT
ATOM      1  C   UNL     1     -66.604 -40.591 -69.296  0.00  0.00    +0.000 A 
ATOM      2  N   UNL     1     -67.905 -40.098 -69.286  0.00  0.00    +0.000 N 
ATOM      3  C   UNL     1     -68.654 -40.015 -68.095  0.00  0.00    +0.000 A 
ATOM      4  C   UNL     1     -69.769 -39.165 -67.969  0.00  0.00    +0.000 A 
ATOM      5 BR   UNL     1     -70.232 -37.953 -69.352  0.00  0.00    +0.000 Br
ATOM      6  C   UNL     1     -70.541 -39.160 -66.804  0.00  0.00    +0.000 A 
ATOM      7  C   UNL     1     -70.207 -40.000 -65.746  0.00  0.00    +0.000 A 
ATOM      8  C   UNL     1     -69.092 -40.852 -65.849  0.00  0.00    +0.000 A 
ATOM      9 CL   UNL     1     -68.735 -41.795 -64.447  0.00  0.00    +0.000 Cl
ATOM     10  C   UNL     1     -68.317 -40.863 -67.027  0.00  0.00    +0.000 A 
ATOM     11  C   UNL     1     -67.144 -41.747 -67.247  0.00  0.00    +0.000 A 
ATOM     12  O   UNL     1     -67.038 -42.795 -66.617  0.00  0.00    +0.000 OA
ATOM     13  C   UNL     1     -66.100 -41.330 -68.279  0.00  0.00    +0.000 A 
ATOM     14  H   UNL     1     -68.076 -39.357 -69.980  0.00  0.00    +0.000 HD
ENDROOT
BRANCH   1  15
ATOM     15  S   UNL     1     -65.648 -39.935 -70.716  0.00  0.00    +0.000 S 
ATOM     16  O   UNL     1     -66.648 -39.095 -71.464  0.00  0.00    +0.000 OA
BRANCH  15  17
ATOM     17  C   UNL     1     -65.290 -41.426 -71.705  0.00  0.00    +0.000 C 
BRANCH  17  21
ATOM     18  C   UNL     1     -60.124 -41.762 -71.770  0.00  0.00    +0.000 C 
ATOM     19  C   UNL     1     -61.598 -41.832 -71.875  0.00  0.00    +0.000 A 
ATOM     20  C   UNL     1     -62.649 -41.174 -71.279  0.00  0.00    +0.000 A 
ATOM     21  C   UNL     1     -63.819 -41.726 -71.877  0.00  0.00    +0.000 A 
ATOM     22  N   UNL     1     -63.472 -42.676 -72.763  0.00  0.00    +0.000 NA
ATOM     23  O   UNL     1     -62.092 -42.735 -72.760  0.00  0.00    +0.000 OA
ENDBRANCH  17  21
ENDBRANCH  15  17
ENDBRANCH   1  15
BRANCH  13  24
ATOM     24  C   UNL     1     -64.673 -41.754 -68.012  0.00  0.00    +0.000 C 
ATOM     25  O   UNL     1     -64.230 -42.786 -68.516  0.00  0.00    +0.000 OA
BRANCH  24  26
ATOM     26  C   UNL     1     -63.791 -40.943 -67.063  0.00  0.00    +0.000 C 
ATOM     27  C   UNL     1     -62.311 -41.075 -67.414  0.00  0.00    +0.000 C 
ATOM     28  C   UNL     1     -64.198 -39.468 -67.023  0.00  0.00    +0.000 C 
ENDBRANCH  24  26
ENDBRANCH  13  24
TORSDOF 5
