REMARK VINA RESULT:    -7.196     12.094     15.148
REMARK INTER + INTRA:         -10.207
REMARK INTER:                  -9.309
REMARK INTRA:                  -0.899
REMARK UNBOUND:                -0.908
REMARK  Name = 
REMARK  6 active torsions:
REMARK  status: ('A' for Active; 'I' for Inactive)
REMARK    1  A    between atoms: C_1  and  C_2
REMARK    2  A    between atoms: C_4  and  C_5
REMARK    3  A    between atoms: C_5  and  S_6
REMARK    4  A    between atoms: S_6  and  C_8
REMARK    5  A    between atoms: C_20  and  C_21
REMARK    6  A    between atoms: C_21  and  C_23
REMARK                            x       y       z     vdW  Elec       q    Type
REMARK                         _______ _______ _______ _____ _____    ______ ____
ROOT
ATOM      1  C   UNL     1     -55.250 -42.973 -61.762  0.00  0.00    +0.000 A 
ATOM      2  N   UNL     1     -55.185 -42.759 -60.371  0.00  0.00    +0.000 N 
ATOM      3  C   UNL     1     -56.374 -42.597 -59.608  0.00  0.00    +0.000 A 
ATOM      4  C   UNL     1     -56.420 -42.770 -58.212  0.00  0.00    +0.000 A 
ATOM      5 BR   UNL     1     -54.915 -43.416 -57.256  0.00  0.00    +0.000 Br
ATOM      6  C   UNL     1     -57.586 -42.493 -57.485  0.00  0.00    +0.000 A 
ATOM      7  C   UNL     1     -58.736 -42.063 -58.158  0.00  0.00    +0.000 A 
ATOM      8  C   UNL     1     -58.715 -41.886 -59.541  0.00  0.00    +0.000 A 
ATOM      9 CL   UNL     1     -60.204 -41.423 -60.284  0.00  0.00    +0.000 Cl
ATOM     10  C   UNL     1     -57.531 -42.132 -60.253  0.00  0.00    +0.000 A 
ATOM     11  C   UNL     1     -57.390 -41.892 -61.702  0.00  0.00    +0.000 A 
ATOM     12  O   UNL     1     -58.023 -41.014 -62.275  0.00  0.00    +0.000 OA
ATOM     13  C   UNL     1     -56.379 -42.707 -62.455  0.00  0.00    +0.000 A 
ATOM     14  H   UNL     1     -54.480 -43.356 -59.918  0.00  0.00    +0.000 HD
ENDROOT
BRANCH   1  15
ATOM     15  S   UNL     1     -53.896 -44.013 -62.370  0.00  0.00    +0.000 S 
ATOM     16  O   UNL     1     -53.152 -44.415 -61.126  0.00  0.00    +0.000 OA
BRANCH  15  17
ATOM     17  C   UNL     1     -52.767 -43.009 -63.379  0.00  0.00    +0.000 C 
BRANCH  17  21
ATOM     18  C   UNL     1     -48.763 -45.708 -65.083  0.00  0.00    +0.000 C 
ATOM     19  C   UNL     1     -49.823 -44.763 -64.686  0.00  0.00    +0.000 A 
ATOM     20  C   UNL     1     -51.038 -44.883 -64.053  0.00  0.00    +0.000 A 
ATOM     21  C   UNL     1     -51.495 -43.555 -63.908  0.00  0.00    +0.000 A 
ATOM     22  N   UNL     1     -50.638 -42.695 -64.485  0.00  0.00    +0.000 NA
ATOM     23  O   UNL     1     -49.594 -43.456 -64.968  0.00  0.00    +0.000 OA
ENDBRANCH  17  21
ENDBRANCH  15  17
ENDBRANCH   1  15
BRANCH  13  24
ATOM     24  C   UNL     1     -56.877 -43.218 -63.764  0.00  0.00    +0.000 C 
ATOM     25  O   UNL     1     -57.735 -44.083 -63.805  0.00  0.00    +0.000 OA
BRANCH  24  26
ATOM     26  C   UNL     1     -56.347 -42.625 -65.006  0.00  0.00    +0.000 C 
ATOM     27  C   UNL     1     -55.757 -41.239 -64.974  0.00  0.00    +0.000 C 
ATOM     28  C   UNL     1     -57.052 -41.477 -65.688  0.00  0.00    +0.000 C 
ENDBRANCH  24  26
ENDBRANCH  13  24
TORSDOF 5
