REMARK VINA RESULT:    -5.245     14.574     17.569
REMARK INTER + INTRA:          -7.312
REMARK INTER:                  -6.386
REMARK INTRA:                  -0.926
REMARK UNBOUND:                -0.841
REMARK  Name = 
REMARK  6 active torsions:
REMARK  status: ('A' for Active; 'I' for Inactive)
REMARK    1  A    between atoms: C_1  and  C_2
REMARK    2  A    between atoms: C_2  and  C_4
REMARK    3  A    between atoms: C_5  and  S_6
REMARK    4  A    between atoms: S_6  and  C_8
REMARK    5  A    between atoms: C_8  and  C_9
REMARK    6  A    between atoms: C_11  and  C_12
REMARK                            x       y       z     vdW  Elec       q    Type
REMARK                         _______ _______ _______ _____ _____    ______ ____
ROOT
ATOM      1  C   UNL     1     -46.919 -25.255 -64.400  0.00  0.00    +0.000 A 
ATOM      2  C   UNL     1     -47.477 -25.604 -63.219  0.00  0.00    +0.000 A 
ATOM      3  N   UNL     1     -48.704 -25.139 -62.787  0.00  0.00    +0.000 N 
ATOM      4  C   UNL     1     -49.423 -24.145 -63.469  0.00  0.00    +0.000 A 
ATOM      5  C   UNL     1     -50.651 -23.673 -62.964  0.00  0.00    +0.000 A 
ATOM      6 BR   UNL     1     -51.339 -24.312 -61.314  0.00  0.00    +0.000 Br
ATOM      7  C   UNL     1     -51.394 -22.724 -63.659  0.00  0.00    +0.000 A 
ATOM      8  C   UNL     1     -50.923 -22.240 -64.878  0.00  0.00    +0.000 A 
ATOM      9  C   UNL     1     -49.717 -22.713 -65.411  0.00  0.00    +0.000 A 
ATOM     10 CL   UNL     1     -49.261 -22.009 -66.924  0.00  0.00    +0.000 Cl
ATOM     11  C   UNL     1     -48.970 -23.684 -64.716  0.00  0.00    +0.000 A 
ATOM     12  C   UNL     1     -47.682 -24.246 -65.220  0.00  0.00    +0.000 A 
ATOM     13  O   UNL     1     -47.220 -23.856 -66.286  0.00  0.00    +0.000 OA
ATOM     14  H   UNL     1     -48.850 -25.168 -61.776  0.00  0.00    +0.000 HD
ENDROOT
BRANCH   1  16
ATOM     15  C   UNL     1     -44.355 -24.930 -64.726  0.00  0.00    +0.000 C 
ATOM     16  C   UNL     1     -45.598 -25.775 -64.905  0.00  0.00    +0.000 C 
ATOM     17  O   UNL     1     -45.502 -26.867 -65.458  0.00  0.00    +0.000 OA
ENDBRANCH   1  16
BRANCH   2  18
ATOM     18  S   UNL     1     -46.569 -26.611 -62.001  0.00  0.00    +0.000 S 
ATOM     19  O   UNL     1     -47.232 -26.260 -60.695  0.00  0.00    +0.000 OA
BRANCH  18  20
ATOM     20  C   UNL     1     -47.199 -28.266 -62.458  0.00  0.00    +0.000 C 
BRANCH  20  21
ATOM     21  C   UNL     1     -48.547 -28.541 -61.879  0.00  0.00    +0.000 A 
ATOM     22  C   UNL     1     -48.912 -29.253 -60.706  0.00  0.00    +0.000 A 
ATOM     23  C   UNL     1     -50.283 -29.183 -60.670  0.00  0.00    +0.000 A 
ATOM     24  C   UNL     1     -51.323 -29.734 -59.783  0.00  0.00    +0.000 C 
ATOM     25  O   UNL     1     -50.717 -28.437 -61.719  0.00  0.00    +0.000 OA
ATOM     26  N   UNL     1     -49.634 -28.026 -62.475  0.00  0.00    +0.000 NA
ENDBRANCH  20  21
ENDBRANCH  18  20
ENDBRANCH   2  18
TORSDOF 4
