REMARK VINA RESULT:    -5.324     15.092     16.825
REMARK INTER + INTRA:          -7.216
REMARK INTER:                  -6.473
REMARK INTRA:                  -0.744
REMARK UNBOUND:                -0.647
REMARK  Name = 
REMARK  6 active torsions:
REMARK  status: ('A' for Active; 'I' for Inactive)
REMARK    1  A    between atoms: C_1  and  C_2
REMARK    2  A    between atoms: C_2  and  C_4
REMARK    3  A    between atoms: C_5  and  S_6
REMARK    4  A    between atoms: S_6  and  C_8
REMARK    5  A    between atoms: C_8  and  C_9
REMARK    6  A    between atoms: C_11  and  C_12
REMARK                            x       y       z     vdW  Elec       q    Type
REMARK                         _______ _______ _______ _____ _____    ______ ____
ROOT
ATOM      1  C   UNL     1     -56.841 -37.565 -62.229  0.00  0.00    +0.000 A 
ATOM      2  C   UNL     1     -57.463 -36.448 -61.735  0.00  0.00    +0.000 A 
ATOM      3  N   UNL     1     -58.801 -36.450 -61.440  0.00  0.00    +0.000 N 
ATOM      4  C   UNL     1     -59.675 -37.495 -61.761  0.00  0.00    +0.000 A 
ATOM      5  C   UNL     1     -61.068 -37.335 -61.610  0.00  0.00    +0.000 A 
ATOM      6 BR   UNL     1     -61.815 -35.691 -61.013  0.00  0.00    +0.000 Br
ATOM      7  C   UNL     1     -61.938 -38.379 -61.902  0.00  0.00    +0.000 A 
ATOM      8  C   UNL     1     -61.425 -39.588 -62.366  0.00  0.00    +0.000 A 
ATOM      9  C   UNL     1     -60.045 -39.755 -62.542  0.00  0.00    +0.000 A 
ATOM     10 CL   UNL     1     -59.552 -41.289 -63.167  0.00  0.00    +0.000 Cl
ATOM     11  C   UNL     1     -59.168 -38.701 -62.231  0.00  0.00    +0.000 A 
ATOM     12  C   UNL     1     -57.698 -38.805 -62.316  0.00  0.00    +0.000 A 
ATOM     13  O   UNL     1     -57.180 -39.911 -62.416  0.00  0.00    +0.000 OA
ATOM     14  H   UNL     1     -59.208 -35.575 -61.107  0.00  0.00    +0.000 HD
ENDROOT
BRANCH   1  16
ATOM     15  C   UNL     1     -55.107 -37.556 -64.185  0.00  0.00    +0.000 C 
ATOM     16  C   UNL     1     -55.413 -37.689 -62.692  0.00  0.00    +0.000 C 
ATOM     17  O   UNL     1     -54.517 -37.885 -61.900  0.00  0.00    +0.000 OA
ENDBRANCH   1  16
BRANCH   2  18
ATOM     18  S   UNL     1     -56.667 -34.794 -61.581  0.00  0.00    +0.000 S 
ATOM     19  O   UNL     1     -56.244 -34.480 -63.001  0.00  0.00    +0.000 OA
BRANCH  18  20
ATOM     20  C   UNL     1     -58.137 -33.717 -61.281  0.00  0.00    +0.000 C 
BRANCH  20  21
ATOM     21  C   UNL     1     -58.398 -32.665 -62.311  0.00  0.00    +0.000 A 
ATOM     22  C   UNL     1     -59.045 -32.731 -63.570  0.00  0.00    +0.000 A 
ATOM     23  C   UNL     1     -59.036 -31.431 -64.025  0.00  0.00    +0.000 A 
ATOM     24  C   UNL     1     -59.547 -30.767 -65.232  0.00  0.00    +0.000 C 
ATOM     25  O   UNL     1     -58.422 -30.637 -63.111  0.00  0.00    +0.000 OA
ATOM     26  N   UNL     1     -58.030 -31.403 -62.033  0.00  0.00    +0.000 NA
ENDBRANCH  20  21
ENDBRANCH  18  20
ENDBRANCH   2  18
TORSDOF 4
