=
 OpenBabel09162516363D

 28 31  0  0  1  0  0  0  0  0999 V2000
  -55.7260  -42.8100  -76.7620 C   0  0  2  0  0  3  0  0  0  0  0  0
  -54.4020  -43.1560  -76.4310 N   0  0  0  0  0  0  0  0  0  0  0  0
  -53.4050  -42.1510  -76.2940 C   0  0  0  0  0  0  0  0  0  0  0  0
  -52.1960  -42.3580  -75.6040 C   0  0  0  0  0  0  0  0  0  0  0  0
  -51.8820  -43.9600  -74.6380 Br  0  0  0  0  0  0  0  0  0  0  0  0
  -51.1930  -41.3780  -75.5870 C   0  0  0  0  0  3  0  0  0  0  0  0
  -51.4050  -40.1600  -76.2430 C   0  0  0  0  0  3  0  0  0  0  0  0
  -52.5960  -39.9310  -76.9330 C   0  0  0  0  0  0  0  0  0  0  0  0
  -52.7880  -38.3710  -77.6480 Cl  0  0  0  0  0  0  0  0  0  0  0  0
  -53.5760  -40.9340  -76.9720 C   0  0  0  0  0  0  0  0  0  0  0  0
  -54.8280  -40.8160  -77.7450 C   0  0  0  0  0  0  0  0  0  0  0  0
  -54.8890  -40.1590  -78.7770 O   0  0  0  0  0  0  0  0  0  0  0  0
  -56.0210  -41.5950  -77.2750 C   0  0  2  0  0  3  0  0  0  0  0  0
  -54.3590  -43.8830  -75.7040 H   0  0  0  0  0  0  0  0  0  0  0  0
  -56.9440  -43.9340  -76.0280 S   0  0  2  0  0  0  0  0  0  0  0  0
  -57.6730  -44.5130  -77.2100 O   0  0  0  0  0  0  0  0  0  0  0  0
  -58.1480  -42.9760  -75.0620 C   0  0  0  0  0  2  0  0  0  0  0  0
  -56.0100  -40.8860  -70.9050 C   0  0  0  0  0  1  0  0  0  0  0  0
  -56.7800  -41.3430  -72.0770 C   0  0  0  0  0  0  0  0  0  0  0  0
  -56.5700  -42.2700  -73.0700 C   0  0  0  0  0  3  0  0  0  0  0  0
  -57.7670  -42.2640  -73.8210 C   0  0  0  0  0  0  0  0  0  0  0  0
  -58.6160  -41.3360  -73.3460 N   0  0  0  0  0  0  0  0  0  0  0  0
  -57.9950  -40.7650  -72.2550 O   0  0  0  0  0  0  0  0  0  0  0  0
  -57.2920  -40.8180  -77.3020 C   0  0  0  0  0  0  0  0  0  0  0  0
  -57.5010  -39.9430  -76.4790 O   0  0  0  0  0  0  0  0  0  0  0  0
  -58.2720  -41.0930  -78.3690 C   0  0  0  0  0  3  0  0  0  0  0  0
  -59.5580  -40.3080  -78.4150 C   0  0  0  0  0  2  0  0  0  0  0  0
  -59.5900  -41.7650  -78.0680 C   0  0  0  0  0  2  0  0  0  0  0  0
  1  2  1  0  0  0  0
  1 15  1  1  0  0  0
  2  3  1  0  0  0  0
  2 14  1  0  0  0  0
  3  4  1  0  0  0  0
  4  6  2  0  0  0  0
  4  5  1  0  0  0  0
  7  6  1  0  0  0  0
  8  7  2  0  0  0  0
  9  8  1  0  0  0  0
 10  8  1  0  0  0  0
 10  3  2  0  0  0  0
 11 13  1  0  0  0  0
 11 10  1  0  0  0  0
 12 11  2  0  0  0  0
 13 24  1  1  0  0  0
 13  1  1  0  0  0  0
 15 16  2  6  0  0  0
 15 17  1  0  0  0  0
 17 21  1  0  0  0  0
 19 18  1  0  0  0  0
 20 19  2  0  0  0  0
 21 22  2  0  0  0  0
 21 20  1  0  0  0  0
 22 23  1  0  0  0  0
 23 19  1  0  0  0  0
 24 25  2  0  0  0  0
 26 28  1  0  0  0  0
 26 24  1  0  0  0  0
 27 26  1  0  0  0  0
 27 28  1  0  0  0  0
M  END
>  <MODEL>
1

>  <REMARK>
 VINA RESULT:    -7.456      0.000      0.000
 INTER + INTRA:         -10.546
 INTER:                  -9.635
 INTRA:                  -0.911
 UNBOUND:                -0.911
  Name = 
  6 active torsions:
  status: ('A' for Active; 'I' for Inactive)
    1  A    between atoms: C_1  and  C_2
    2  A    between atoms: C_4  and  C_5
    3  A    between atoms: C_5  and  S_6
    4  A    between atoms: S_6  and  C_8
    5  A    between atoms: C_20  and  C_21
    6  A    between atoms: C_21  and  C_23
                            x       y       z     vdW  Elec       q    Type
                         _______ _______ _______ _____ _____    ______ ____

>  <TORSDO>
F 5

$$$$
