REMARK VINA RESULT:    -6.309      3.635      5.688
REMARK INTER + INTRA:          -9.015
REMARK INTER:                  -8.181
REMARK INTRA:                  -0.835
REMARK UNBOUND:                -0.863
REMARK  Name = 
REMARK  6 active torsions:
REMARK  status: ('A' for Active; 'I' for Inactive)
REMARK    1  A    between atoms: C_1  and  C_2
REMARK    2  A    between atoms: C_4  and  C_5
REMARK    3  A    between atoms: C_5  and  S_6
REMARK    4  A    between atoms: S_6  and  C_8
REMARK    5  A    between atoms: C_20  and  C_21
REMARK    6  A    between atoms: C_21  and  C_23
REMARK                            x       y       z     vdW  Elec       q    Type
REMARK                         _______ _______ _______ _____ _____    ______ ____
ROOT
ATOM      1  C   UNL     1     -57.102 -41.357 -78.791  0.00  0.00    +0.000 A 
ATOM      2  N   UNL     1     -56.410 -41.557 -80.001  0.00  0.00    +0.000 N 
ATOM      3  C   UNL     1     -55.014 -41.826 -80.000  0.00  0.00    +0.000 A 
ATOM      4  C   UNL     1     -54.344 -42.410 -81.091  0.00  0.00    +0.000 A 
ATOM      5 BR   UNL     1     -55.301 -43.056 -82.596  0.00  0.00    +0.000 Br
ATOM      6  C   UNL     1     -52.950 -42.556 -81.092  0.00  0.00    +0.000 A 
ATOM      7  C   UNL     1     -52.209 -42.141 -79.979  0.00  0.00    +0.000 A 
ATOM      8  C   UNL     1     -52.852 -41.561 -78.885  0.00  0.00    +0.000 A 
ATOM      9 CL   UNL     1     -51.858 -41.148 -77.534  0.00  0.00    +0.000 Cl
ATOM     10  C   UNL     1     -54.244 -41.387 -78.912  0.00  0.00    +0.000 A 
ATOM     11  C   UNL     1     -54.999 -40.708 -77.841  0.00  0.00    +0.000 A 
ATOM     12  O   UNL     1     -54.500 -39.815 -77.167  0.00  0.00    +0.000 OA
ATOM     13  C   UNL     1     -56.437 -41.085 -77.646  0.00  0.00    +0.000 A 
ATOM     14  H   UNL     1     -56.944 -42.138 -80.662  0.00  0.00    +0.000 HD
ENDROOT
BRANCH   1  15
ATOM     15  S   UNL     1     -58.819 -41.933 -78.866  0.00  0.00    +0.000 S 
ATOM     16  O   UNL     1     -58.702 -43.407 -79.140  0.00  0.00    +0.000 OA
BRANCH  15  17
ATOM     17  C   UNL     1     -59.650 -41.178 -80.295  0.00  0.00    +0.000 C 
BRANCH  17  21
ATOM     18  C   UNL     1     -62.049 -36.838 -79.023  0.00  0.00    +0.000 C 
ATOM     19  C   UNL     1     -61.360 -38.013 -79.589  0.00  0.00    +0.000 A 
ATOM     20  C   UNL     1     -60.786 -39.144 -79.060  0.00  0.00    +0.000 A 
ATOM     21  C   UNL     1     -60.391 -39.901 -80.185  0.00  0.00    +0.000 A 
ATOM     22  N   UNL     1     -60.651 -39.229 -81.320  0.00  0.00    +0.000 NA
ATOM     23  O   UNL     1     -61.258 -38.050 -80.941  0.00  0.00    +0.000 OA
ENDBRANCH  17  21
ENDBRANCH  15  17
ENDBRANCH   1  15
BRANCH  13  24
ATOM     24  C   UNL     1     -56.823 -41.259 -76.217  0.00  0.00    +0.000 C 
ATOM     25  O   UNL     1     -57.436 -40.384 -75.629  0.00  0.00    +0.000 OA
BRANCH  24  26
ATOM     26  C   UNL     1     -56.492 -42.528 -75.540  0.00  0.00    +0.000 C 
ATOM     27  C   UNL     1     -56.816 -42.694 -74.078  0.00  0.00    +0.000 C 
ATOM     28  C   UNL     1     -55.386 -42.603 -74.515  0.00  0.00    +0.000 C 
ENDBRANCH  24  26
ENDBRANCH  13  24
TORSDOF 5
