REMARK VINA RESULT:    -6.795     12.069     14.030
REMARK INTER + INTRA:          -9.658
REMARK INTER:                  -8.595
REMARK INTRA:                  -1.063
REMARK UNBOUND:                -0.876
REMARK  Name = 
REMARK  6 active torsions:
REMARK  status: ('A' for Active; 'I' for Inactive)
REMARK    1  A    between atoms: C_1  and  C_2
REMARK    2  A    between atoms: C_4  and  C_5
REMARK    3  A    between atoms: C_5  and  S_6
REMARK    4  A    between atoms: S_6  and  C_8
REMARK    5  A    between atoms: C_20  and  C_21
REMARK    6  A    between atoms: C_21  and  C_23
REMARK                            x       y       z     vdW  Elec       q    Type
REMARK                         _______ _______ _______ _____ _____    ______ ____
ROOT
ATOM      1  C   UNL     1     -56.428 -42.638 -62.875  0.00  0.00    +0.000 A 
ATOM      2  N   UNL     1     -55.400 -43.599 -62.938  0.00  0.00    +0.000 N 
ATOM      3  C   UNL     1     -54.072 -43.216 -63.271  0.00  0.00    +0.000 A 
ATOM      4  C   UNL     1     -52.948 -44.012 -62.981  0.00  0.00    +0.000 A 
ATOM      5 BR   UNL     1     -53.109 -45.595 -61.949  0.00  0.00    +0.000 Br
ATOM      6  C   UNL     1     -51.668 -43.649 -63.424  0.00  0.00    +0.000 A 
ATOM      7  C   UNL     1     -51.496 -42.461 -64.145  0.00  0.00    +0.000 A 
ATOM      8  C   UNL     1     -52.595 -41.655 -64.443  0.00  0.00    +0.000 A 
ATOM      9 CL   UNL     1     -52.268 -40.177 -65.273  0.00  0.00    +0.000 Cl
ATOM     10  C   UNL     1     -53.876 -42.048 -64.024  0.00  0.00    +0.000 A 
ATOM     11  C   UNL     1     -55.105 -41.306 -64.366  0.00  0.00    +0.000 A 
ATOM     12  O   UNL     1     -55.205 -40.668 -65.406  0.00  0.00    +0.000 OA
ATOM     13  C   UNL     1     -56.275 -41.418 -63.434  0.00  0.00    +0.000 A 
ATOM     14  H   UNL     1     -55.455 -44.279 -62.168  0.00  0.00    +0.000 HD
ENDROOT
BRANCH   1  15
ATOM     15  S   UNL     1     -57.689 -43.048 -61.638  0.00  0.00    +0.000 S 
ATOM     16  O   UNL     1     -58.965 -42.499 -62.216  0.00  0.00    +0.000 OA
BRANCH  15  17
ATOM     17  C   UNL     1     -57.351 -42.137 -60.103  0.00  0.00    +0.000 C 
BRANCH  17  21
ATOM     18  C   UNL     1     -53.913 -43.004 -56.409  0.00  0.00    +0.000 C 
ATOM     19  C   UNL     1     -54.781 -42.881 -57.594  0.00  0.00    +0.000 A 
ATOM     20  C   UNL     1     -55.996 -42.287 -57.845  0.00  0.00    +0.000 A 
ATOM     21  C   UNL     1     -56.202 -42.472 -59.230  0.00  0.00    +0.000 A 
ATOM     22  N   UNL     1     -55.202 -43.197 -59.763  0.00  0.00    +0.000 NA
ATOM     23  O   UNL     1     -54.317 -43.448 -58.736  0.00  0.00    +0.000 OA
ENDBRANCH  17  21
ENDBRANCH  15  17
ENDBRANCH   1  15
BRANCH  13  24
ATOM     24  C   UNL     1     -56.951 -40.117 -63.163  0.00  0.00    +0.000 C 
ATOM     25  O   UNL     1     -58.115 -39.946 -63.481  0.00  0.00    +0.000 OA
BRANCH  24  26
ATOM     26  C   UNL     1     -56.202 -39.059 -62.459  0.00  0.00    +0.000 C 
ATOM     27  C   UNL     1     -56.818 -37.692 -62.304  0.00  0.00    +0.000 C 
ATOM     28  C   UNL     1     -55.635 -37.874 -63.205  0.00  0.00    +0.000 C 
ENDBRANCH  24  26
ENDBRANCH  13  24
TORSDOF 5
