REMARK VINA RESULT:    -6.268     12.346     13.371
REMARK INTER + INTRA:          -8.704
REMARK INTER:                  -7.952
REMARK INTRA:                  -0.752
REMARK UNBOUND:                -0.971
REMARK  Name = 
REMARK  6 active torsions:
REMARK  status: ('A' for Active; 'I' for Inactive)
REMARK    1  A    between atoms: C_1  and  C_2
REMARK    2  A    between atoms: C_2  and  C_4
REMARK    3  A    between atoms: C_5  and  S_6
REMARK    4  A    between atoms: S_6  and  C_8
REMARK    5  A    between atoms: C_8  and  C_9
REMARK    6  A    between atoms: C_11  and  C_12
REMARK                            x       y       z     vdW  Elec       q    Type
REMARK                         _______ _______ _______ _____ _____    ______ ____
ROOT
ATOM      1  C   UNL     1     -55.221 -41.151 -64.047  0.00  0.00    +0.000 A 
ATOM      2  C   UNL     1     -55.528 -42.312 -63.422  0.00  0.00    +0.000 A 
ATOM      3  N   UNL     1     -54.582 -43.257 -63.067  0.00  0.00    +0.000 N 
ATOM      4  C   UNL     1     -53.247 -43.193 -63.509  0.00  0.00    +0.000 A 
ATOM      5  C   UNL     1     -52.338 -44.226 -63.218  0.00  0.00    +0.000 A 
ATOM      6 BR   UNL     1     -52.894 -45.779 -62.275  0.00  0.00    +0.000 Br
ATOM      7  C   UNL     1     -51.005 -44.148 -63.618  0.00  0.00    +0.000 A 
ATOM      8  C   UNL     1     -50.562 -43.027 -64.312  0.00  0.00    +0.000 A 
ATOM      9  C   UNL     1     -51.439 -41.973 -64.591  0.00  0.00    +0.000 A 
ATOM     10 CL   UNL     1     -50.750 -40.664 -65.488  0.00  0.00    +0.000 Cl
ATOM     11  C   UNL     1     -52.782 -42.042 -64.167  0.00  0.00    +0.000 A 
ATOM     12  C   UNL     1     -53.768 -40.948 -64.390  0.00  0.00    +0.000 A 
ATOM     13  O   UNL     1     -53.392 -39.890 -64.877  0.00  0.00    +0.000 OA
ATOM     14  H   UNL     1     -54.945 -44.205 -62.948  0.00  0.00    +0.000 HD
ENDROOT
BRANCH   1  16
ATOM     15  C   UNL     1     -56.393 -38.869 -63.559  0.00  0.00    +0.000 C 
ATOM     16  C   UNL     1     -56.228 -40.096 -64.433  0.00  0.00    +0.000 C 
ATOM     17  O   UNL     1     -56.928 -40.207 -65.441  0.00  0.00    +0.000 OA
ENDBRANCH   1  16
BRANCH   2  18
ATOM     18  S   UNL     1     -57.264 -42.826 -63.141  0.00  0.00    +0.000 S 
ATOM     19  O   UNL     1     -57.133 -44.274 -62.746  0.00  0.00    +0.000 OA
BRANCH  18  20
ATOM     20  C   UNL     1     -57.598 -41.911 -61.595  0.00  0.00    +0.000 C 
BRANCH  20  21
ATOM     21  C   UNL     1     -58.773 -40.990 -61.716  0.00  0.00    +0.000 A 
ATOM     22  C   UNL     1     -59.873 -41.040 -62.612  0.00  0.00    +0.000 A 
ATOM     23  C   UNL     1     -60.709 -40.031 -62.198  0.00  0.00    +0.000 A 
ATOM     24  C   UNL     1     -62.027 -39.526 -62.628  0.00  0.00    +0.000 C 
ATOM     25  O   UNL     1     -60.141 -39.402 -61.130  0.00  0.00    +0.000 OA
ATOM     26  N   UNL     1     -58.934 -40.004 -60.823  0.00  0.00    +0.000 NA
ENDBRANCH  20  21
ENDBRANCH  18  20
ENDBRANCH   2  18
TORSDOF 4
