=
 OpenBabel09162515233D

 28 31  0  0  1  0  0  0  0  0999 V2000
  -55.6940  -42.2350  -76.9010 C   0  0  2  0  0  3  0  0  0  0  0  0
  -54.9320  -41.0530  -76.9730 N   0  0  0  0  0  0  0  0  0  0  0  0
  -53.5370  -41.0740  -76.6990 C   0  0  0  0  0  0  0  0  0  0  0  0
  -52.6560  -40.0590  -77.1170 C   0  0  0  0  0  0  0  0  0  0  0  0
  -53.2470  -38.6560  -78.2500 Br  0  0  0  0  0  0  0  0  0  0  0  0
  -51.3080  -40.0630  -76.7310 C   0  0  0  0  0  3  0  0  0  0  0  0
  -50.8190  -41.1070  -75.9380 C   0  0  0  0  0  3  0  0  0  0  0  0
  -51.6720  -42.1250  -75.5130 C   0  0  0  0  0  0  0  0  0  0  0  0
  -50.9550  -43.4040  -74.5990 Cl  0  0  0  0  0  0  0  0  0  0  0  0
  -53.0270  -42.0910  -75.8760 C   0  0  0  0  0  0  0  0  0  0  0  0
  -54.0200  -43.0750  -75.4040 C   0  0  0  0  0  0  0  0  0  0  0  0
  -53.9140  -43.6260  -74.3160 O   0  0  0  0  0  0  0  0  0  0  0  0
  -55.2210  -43.3300  -76.2650 C   0  0  2  0  0  3  0  0  0  0  0  0
  -55.1850  -40.4750  -77.7860 H   0  0  0  0  0  0  0  0  0  0  0  0
  -57.0690  -42.2500  -78.0810 S   0  0  2  0  0  0  0  0  0  0  0  0
  -56.7630  -41.1140  -79.0190 O   0  0  0  0  0  0  0  0  0  0  0  0
  -58.6140  -41.8400  -77.2170 C   0  0  0  0  0  2  0  0  0  0  0  0
  -59.0670  -41.5280  -72.1270 C   0  0  0  0  0  1  0  0  0  0  0  0
  -58.8040  -41.4520  -73.5760 C   0  0  0  0  0  0  0  0  0  0  0  0
  -59.1580  -42.2140  -74.6640 C   0  0  0  0  0  3  0  0  0  0  0  0
  -58.6400  -41.5100  -75.7740 C   0  0  0  0  0  0  0  0  0  0  0  0
  -57.9540  -40.4280  -75.3670 N   0  0  0  0  0  0  0  0  0  0  0  0
  -58.0610  -40.3960  -73.9920 O   0  0  0  0  0  0  0  0  0  0  0  0
  -55.5690  -44.7730  -76.3970 C   0  0  0  0  0  0  0  0  0  0  0  0
  -56.7260  -45.1430  -76.3020 O   0  0  0  0  0  0  0  0  0  0  0  0
  -54.4940  -45.7390  -76.6920 C   0  0  0  0  0  3  0  0  0  0  0  0
  -54.8390  -47.1910  -76.9010 C   0  0  0  0  0  2  0  0  0  0  0  0
  -54.0760  -46.7790  -75.6790 C   0  0  0  0  0  2  0  0  0  0  0  0
  1 15  1  6  0  0  0
  1 13  1  0  0  0  0
  2  1  1  0  0  0  0
  2  3  1  0  0  0  0
  3 10  1  0  0  0  0
  4  6  1  0  0  0  0
  4  3  2  0  0  0  0
  5  4  1  0  0  0  0
  6  7  2  0  0  0  0
  7  8  1  0  0  0  0
  8  9  1  0  0  0  0
 10  8  2  0  0  0  0
 10 11  1  0  0  0  0
 11 12  2  0  0  0  0
 13 24  1  6  0  0  0
 13 11  1  0  0  0  0
 14  2  1  0  0  0  0
 15 16  2  6  0  0  0
 15 17  1  0  0  0  0
 17 21  1  0  0  0  0
 19 18  1  0  0  0  0
 20 19  2  0  0  0  0
 21 22  2  0  0  0  0
 21 20  1  0  0  0  0
 22 23  1  0  0  0  0
 23 19  1  0  0  0  0
 24 25  2  0  0  0  0
 26 24  1  0  0  0  0
 26 28  1  0  0  0  0
 27 26  1  0  0  0  0
 27 28  1  0  0  0  0
M  END
>  <MODEL>
1

>  <REMARK>
 VINA RESULT:    -6.897      0.000      0.000
 INTER + INTRA:          -9.764
 INTER:                  -8.913
 INTRA:                  -0.850
 UNBOUND:                -0.850
  Name = 
  6 active torsions:
  status: ('A' for Active; 'I' for Inactive)
    1  A    between atoms: C_1  and  C_2
    2  A    between atoms: C_4  and  C_5
    3  A    between atoms: C_5  and  S_6
    4  A    between atoms: S_6  and  C_8
    5  A    between atoms: C_20  and  C_21
    6  A    between atoms: C_21  and  C_23
                            x       y       z     vdW  Elec       q    Type
                         _______ _______ _______ _____ _____    ______ ____

>  <TORSDO>
F 5

$$$$
