REMARK VINA RESULT:    -5.757     11.673     14.476
REMARK INTER + INTRA:          -8.482
REMARK INTER:                  -7.228
REMARK INTRA:                  -1.254
REMARK UNBOUND:                -1.042
REMARK  Name = 
REMARK  8 active torsions:
REMARK  status: ('A' for Active; 'I' for Inactive)
REMARK    1  A    between atoms: C_1  and  C_2
REMARK    2  A    between atoms: C_4  and  C_5
REMARK    3  A    between atoms: C_5  and  S_6
REMARK    4  A    between atoms: S_6  and  C_8
REMARK    5  A    between atoms: C_20  and  C_21
REMARK    6  A    between atoms: C_21  and  C_23
REMARK    7  A    between atoms: C_23  and  C_24
REMARK    8  A    between atoms: C_23  and  C_25
REMARK                            x       y       z     vdW  Elec       q    Type
REMARK                         _______ _______ _______ _____ _____    ______ ____
ROOT
ATOM      1  C   UNL     1     -57.082 -43.445 -77.313  0.00  0.00    +0.000 A 
ATOM      2  N   UNL     1     -57.284 -44.490 -78.209  0.00  0.00    +0.000 N 
ATOM      3  C   UNL     1     -57.034 -45.829 -77.850  0.00  0.00    +0.000 A 
ATOM      4  C   UNL     1     -57.604 -46.910 -78.549  0.00  0.00    +0.000 A 
ATOM      5 BR   UNL     1     -58.879 -46.621 -79.924  0.00  0.00    +0.000 Br
ATOM      6  C   UNL     1     -57.278 -48.230 -78.222  0.00  0.00    +0.000 A 
ATOM      7  C   UNL     1     -56.382 -48.488 -77.188  0.00  0.00    +0.000 A 
ATOM      8  C   UNL     1     -55.808 -47.422 -76.472  0.00  0.00    +0.000 A 
ATOM      9 CL   UNL     1     -54.769 -47.867 -75.167  0.00  0.00    +0.000 Cl
ATOM     10  C   UNL     1     -56.131 -46.091 -76.807  0.00  0.00    +0.000 A 
ATOM     11  C   UNL     1     -55.555 -44.897 -76.135  0.00  0.00    +0.000 A 
ATOM     12  O   UNL     1     -54.472 -44.977 -75.562  0.00  0.00    +0.000 OA
ATOM     13  C   UNL     1     -56.326 -43.582 -76.197  0.00  0.00    +0.000 A 
ATOM     14  H   UNL     1     -58.064 -44.335 -78.862  0.00  0.00    +0.000 HD
ENDROOT
BRANCH   1  15
ATOM     15  S   UNL     1     -58.123 -41.995 -77.726  0.00  0.00    +0.000 S 
ATOM     16  O   UNL     1     -58.774 -42.379 -79.028  0.00  0.00    +0.000 OA
BRANCH  15  17
ATOM     17  C   UNL     1     -56.900 -40.682 -78.057  0.00  0.00    +0.000 C 
BRANCH  17  21
ATOM     18  C   UNL     1     -52.200 -42.045 -79.745  0.00  0.00    +0.000 C 
ATOM     19  C   UNL     1     -53.612 -41.722 -79.446  0.00  0.00    +0.000 A 
ATOM     20  C   UNL     1     -54.299 -41.290 -78.334  0.00  0.00    +0.000 A 
ATOM     21  C   UNL     1     -55.650 -41.151 -78.764  0.00  0.00    +0.000 A 
ATOM     22  N   UNL     1     -55.755 -41.504 -80.057  0.00  0.00    +0.000 NA
ATOM     23  O   UNL     1     -54.486 -41.854 -80.477  0.00  0.00    +0.000 OA
ENDBRANCH  17  21
ENDBRANCH  15  17
ENDBRANCH   1  15
BRANCH  13  24
ATOM     24  C   UNL     1     -56.178 -42.651 -75.015  0.00  0.00    +0.000 C 
ATOM     25  O   UNL     1     -55.329 -41.761 -75.031  0.00  0.00    +0.000 OA
BRANCH  24  26
ATOM     26  C   UNL     1     -57.034 -42.849 -73.763  0.00  0.00    +0.000 C 
ATOM     27  C   UNL     1     -56.396 -42.206 -72.534  0.00  0.00    +0.000 C 
ATOM     28  C   UNL     1     -58.460 -42.326 -73.957  0.00  0.00    +0.000 C 
ENDBRANCH  24  26
ENDBRANCH  13  24
TORSDOF 5
