REMARK VINA RESULT:    -6.796      2.915      4.391
REMARK INTER + INTRA:          -9.576
REMARK INTER:                  -8.614
REMARK INTRA:                  -0.962
REMARK UNBOUND:                -0.794
REMARK  Name = 
REMARK  8 active torsions:
REMARK  status: ('A' for Active; 'I' for Inactive)
REMARK    1  A    between atoms: C_1  and  C_2
REMARK    2  A    between atoms: C_4  and  C_5
REMARK    3  A    between atoms: C_5  and  S_6
REMARK    4  A    between atoms: S_6  and  C_8
REMARK    5  A    between atoms: C_20  and  C_21
REMARK    6  A    between atoms: C_21  and  C_23
REMARK    7  A    between atoms: C_23  and  C_24
REMARK    8  A    between atoms: C_23  and  C_25
REMARK                            x       y       z     vdW  Elec       q    Type
REMARK                         _______ _______ _______ _____ _____    ______ ____
ROOT
ATOM      1  C   UNL     1     -55.605 -43.038 -77.308  0.00  0.00    +0.000 A 
ATOM      2  N   UNL     1     -54.337 -43.342 -76.825  0.00  0.00    +0.000 N 
ATOM      3  C   UNL     1     -53.384 -42.337 -76.567  0.00  0.00    +0.000 A 
ATOM      4  C   UNL     1     -52.285 -42.548 -75.712  0.00  0.00    +0.000 A 
ATOM      5 BR   UNL     1     -52.113 -44.158 -74.724  0.00  0.00    +0.000 Br
ATOM      6  C   UNL     1     -51.312 -41.560 -75.535  0.00  0.00    +0.000 A 
ATOM      7  C   UNL     1     -51.426 -40.346 -76.205  0.00  0.00    +0.000 A 
ATOM      8  C   UNL     1     -52.520 -40.112 -77.058  0.00  0.00    +0.000 A 
ATOM      9 CL   UNL     1     -52.590 -38.544 -77.777  0.00  0.00    +0.000 Cl
ATOM     10  C   UNL     1     -53.498 -41.112 -77.242  0.00  0.00    +0.000 A 
ATOM     11  C   UNL     1     -54.670 -40.976 -78.144  0.00  0.00    +0.000 A 
ATOM     12  O   UNL     1     -54.634 -40.189 -79.086  0.00  0.00    +0.000 OA
ATOM     13  C   UNL     1     -55.896 -41.847 -77.883  0.00  0.00    +0.000 A 
ATOM     14  H   UNL     1     -54.314 -44.158 -76.198  0.00  0.00    +0.000 HD
ENDROOT
BRANCH   1  15
ATOM     15  S   UNL     1     -56.821 -44.337 -76.869  0.00  0.00    +0.000 S 
ATOM     16  O   UNL     1     -57.612 -43.724 -75.745  0.00  0.00    +0.000 OA
BRANCH  15  17
ATOM     17  C   UNL     1     -55.780 -45.670 -76.183  0.00  0.00    +0.000 C 
BRANCH  17  21
ATOM     18  C   UNL     1     -55.607 -50.445 -78.177  0.00  0.00    +0.000 C 
ATOM     19  C   UNL     1     -55.850 -49.073 -77.681  0.00  0.00    +0.000 A 
ATOM     20  C   UNL     1     -55.157 -48.186 -76.888  0.00  0.00    +0.000 A 
ATOM     21  C   UNL     1     -55.970 -47.017 -76.841  0.00  0.00    +0.000 A 
ATOM     22  N   UNL     1     -57.094 -47.215 -77.552  0.00  0.00    +0.000 NA
ATOM     23  O   UNL     1     -57.012 -48.492 -78.075  0.00  0.00    +0.000 OA
ENDBRANCH  17  21
ENDBRANCH  15  17
ENDBRANCH   1  15
BRANCH  13  24
ATOM     24  C   UNL     1     -57.239 -41.260 -78.257  0.00  0.00    +0.000 C 
ATOM     25  O   UNL     1     -57.845 -41.679 -79.242  0.00  0.00    +0.000 OA
BRANCH  24  26
ATOM     26  C   UNL     1     -57.824 -40.097 -77.454  0.00  0.00    +0.000 C 
ATOM     27  C   UNL     1     -59.304 -39.886 -77.760  0.00  0.00    +0.000 C 
ATOM     28  C   UNL     1     -57.614 -40.278 -75.948  0.00  0.00    +0.000 C 
ENDBRANCH  24  26
ENDBRANCH  13  24
TORSDOF 5
