REMARK VINA RESULT:    -5.711     15.276     16.782
REMARK INTER + INTRA:          -7.903
REMARK INTER:                  -7.048
REMARK INTRA:                  -0.855
REMARK UNBOUND:                -0.856
REMARK  Name = 
REMARK  6 active torsions:
REMARK  status: ('A' for Active; 'I' for Inactive)
REMARK    1  A    between atoms: C_1  and  C_2
REMARK    2  A    between atoms: C_2  and  C_4
REMARK    3  A    between atoms: C_5  and  S_6
REMARK    4  A    between atoms: S_6  and  C_8
REMARK    5  A    between atoms: C_8  and  C_9
REMARK    6  A    between atoms: C_11  and  C_12
REMARK                            x       y       z     vdW  Elec       q    Type
REMARK                         _______ _______ _______ _____ _____    ______ ____
ROOT
ATOM      1  C   UNL     1     -53.182 -41.568 -77.864  0.00  0.00    +0.000 A 
ATOM      2  C   UNL     1     -54.521 -41.395 -77.917  0.00  0.00    +0.000 A 
ATOM      3  N   UNL     1     -55.254 -41.585 -79.072  0.00  0.00    +0.000 N 
ATOM      4  C   UNL     1     -54.666 -41.872 -80.315  0.00  0.00    +0.000 A 
ATOM      5  C   UNL     1     -55.456 -42.092 -81.455  0.00  0.00    +0.000 A 
ATOM      6 BR   UNL     1     -57.349 -41.939 -81.374  0.00  0.00    +0.000 Br
ATOM      7  C   UNL     1     -54.877 -42.436 -82.678  0.00  0.00    +0.000 A 
ATOM      8  C   UNL     1     -53.497 -42.560 -82.775  0.00  0.00    +0.000 A 
ATOM      9  C   UNL     1     -52.687 -42.356 -81.655  0.00  0.00    +0.000 A 
ATOM     10 CL   UNL     1     -50.988 -42.515 -81.941  0.00  0.00    +0.000 Cl
ATOM     11  C   UNL     1     -53.276 -42.042 -80.413  0.00  0.00    +0.000 A 
ATOM     12  C   UNL     1     -52.493 -41.899 -79.163  0.00  0.00    +0.000 A 
ATOM     13  O   UNL     1     -51.279 -42.045 -79.191  0.00  0.00    +0.000 OA
ATOM     14  H   UNL     1     -56.208 -41.232 -79.087  0.00  0.00    +0.000 HD
ENDROOT
BRANCH   1  16
ATOM     15  C   UNL     1     -51.624 -40.179 -76.317  0.00  0.00    +0.000 C 
ATOM     16  C   UNL     1     -52.340 -41.472 -76.619  0.00  0.00    +0.000 C 
ATOM     17  O   UNL     1     -52.200 -42.429 -75.868  0.00  0.00    +0.000 OA
ENDBRANCH   1  16
BRANCH   2  18
ATOM     18  S   UNL     1     -55.457 -40.771 -76.470  0.00  0.00    +0.000 S 
ATOM     19  O   UNL     1     -56.662 -40.105 -77.078  0.00  0.00    +0.000 OA
BRANCH  18  20
ATOM     20  C   UNL     1     -56.058 -42.353 -75.777  0.00  0.00    +0.000 C 
BRANCH  20  21
ATOM     21  C   UNL     1     -57.493 -42.604 -76.107  0.00  0.00    +0.000 A 
ATOM     22  C   UNL     1     -58.046 -43.269 -77.232  0.00  0.00    +0.000 A 
ATOM     23  C   UNL     1     -59.402 -43.284 -76.997  0.00  0.00    +0.000 A 
ATOM     24  C   UNL     1     -60.577 -43.801 -77.728  0.00  0.00    +0.000 C 
ATOM     25  O   UNL     1     -59.649 -42.673 -75.807  0.00  0.00    +0.000 OA
ATOM     26  N   UNL     1     -58.454 -42.255 -75.243  0.00  0.00    +0.000 NA
ENDBRANCH  20  21
ENDBRANCH  18  20
ENDBRANCH   2  18
TORSDOF 4
