REMARK VINA RESULT:    -5.628     17.769     19.641
REMARK INTER + INTRA:          -8.160
REMARK INTER:                  -7.124
REMARK INTRA:                  -1.036
REMARK UNBOUND:                -0.887
REMARK  Name = 
REMARK  8 active torsions:
REMARK  status: ('A' for Active; 'I' for Inactive)
REMARK    1  A    between atoms: C_1  and  C_2
REMARK    2  A    between atoms: C_4  and  C_5
REMARK    3  A    between atoms: C_5  and  S_6
REMARK    4  A    between atoms: S_6  and  C_8
REMARK    5  A    between atoms: C_20  and  C_21
REMARK    6  A    between atoms: C_21  and  C_23
REMARK    7  A    between atoms: C_23  and  C_24
REMARK    8  A    between atoms: C_23  and  C_25
REMARK                            x       y       z     vdW  Elec       q    Type
REMARK                         _______ _______ _______ _____ _____    ______ ____
ROOT
ATOM      1  C   UNL     1     -47.847 -24.777 -62.099  0.00  0.00    +0.000 A 
ATOM      2  N   UNL     1     -47.724 -24.830 -63.484  0.00  0.00    +0.000 N 
ATOM      3  C   UNL     1     -48.496 -24.006 -64.326  0.00  0.00    +0.000 A 
ATOM      4  C   UNL     1     -48.119 -23.729 -65.654  0.00  0.00    +0.000 A 
ATOM      5 BR   UNL     1     -46.453 -24.323 -66.339  0.00  0.00    +0.000 Br
ATOM      6  C   UNL     1     -48.943 -22.972 -66.492  0.00  0.00    +0.000 A 
ATOM      7  C   UNL     1     -50.153 -22.477 -66.014  0.00  0.00    +0.000 A 
ATOM      8  C   UNL     1     -50.544 -22.736 -64.688  0.00  0.00    +0.000 A 
ATOM      9 CL   UNL     1     -52.029 -22.010 -64.187  0.00  0.00    +0.000 Cl
ATOM     10  C   UNL     1     -49.716 -23.505 -63.844  0.00  0.00    +0.000 A 
ATOM     11  C   UNL     1     -50.054 -23.861 -62.442  0.00  0.00    +0.000 A 
ATOM     12  O   UNL     1     -51.226 -23.880 -62.077  0.00  0.00    +0.000 OA
ATOM     13  C   UNL     1     -48.919 -24.219 -61.487  0.00  0.00    +0.000 A 
ATOM     14  H   UNL     1     -46.771 -25.042 -63.810  0.00  0.00    +0.000 HD
ENDROOT
BRANCH   1  15
ATOM     15  S   UNL     1     -46.316 -25.344 -61.266  0.00  0.00    +0.000 S 
ATOM     16  O   UNL     1     -45.316 -24.265 -61.581  0.00  0.00    +0.000 OA
BRANCH  15  17
ATOM     17  C   UNL     1     -45.862 -26.845 -62.200  0.00  0.00    +0.000 C 
BRANCH  17  21
ATOM     18  C   UNL     1     -49.557 -30.432 -61.671  0.00  0.00    +0.000 C 
ATOM     19  C   UNL     1     -48.373 -29.547 -61.739  0.00  0.00    +0.000 A 
ATOM     20  C   UNL     1     -48.111 -28.310 -62.283  0.00  0.00    +0.000 A 
ATOM     21  C   UNL     1     -46.754 -28.037 -61.946  0.00  0.00    +0.000 A 
ATOM     22  N   UNL     1     -46.239 -29.071 -61.258  0.00  0.00    +0.000 NA
ATOM     23  O   UNL     1     -47.250 -30.004 -61.129  0.00  0.00    +0.000 OA
ENDBRANCH  17  21
ENDBRANCH  15  17
ENDBRANCH   1  15
BRANCH  13  24
ATOM     24  C   UNL     1     -49.123 -23.874 -60.029  0.00  0.00    +0.000 C 
ATOM     25  O   UNL     1     -48.597 -22.870 -59.551  0.00  0.00    +0.000 OA
BRANCH  24  26
ATOM     26  C   UNL     1     -49.930 -24.803 -59.121  0.00  0.00    +0.000 C 
ATOM     27  C   UNL     1     -49.595 -26.271 -59.372  0.00  0.00    +0.000 C 
ATOM     28  C   UNL     1     -49.741 -24.462 -57.640  0.00  0.00    +0.000 C 
ENDBRANCH  24  26
ENDBRANCH  13  24
TORSDOF 5
