REMARK VINA RESULT:    -5.323      4.224      5.532
REMARK INTER + INTRA:          -7.538
REMARK INTER:                  -6.630
REMARK INTRA:                  -0.908
REMARK UNBOUND:                -0.971
REMARK  Name = 
REMARK  6 active torsions:
REMARK  status: ('A' for Active; 'I' for Inactive)
REMARK    1  A    between atoms: C_1  and  C_2
REMARK    2  A    between atoms: C_2  and  C_4
REMARK    3  A    between atoms: C_5  and  S_6
REMARK    4  A    between atoms: S_6  and  C_8
REMARK    5  A    between atoms: C_8  and  C_9
REMARK    6  A    between atoms: C_11  and  C_12
REMARK                            x       y       z     vdW  Elec       q    Type
REMARK                         _______ _______ _______ _____ _____    ______ ____
ROOT
ATOM      1  C   UNL     1     -56.872 -41.345 -63.322  0.00  0.00    +0.000 A 
ATOM      2  C   UNL     1     -57.683 -40.455 -62.708  0.00  0.00    +0.000 A 
ATOM      3  N   UNL     1     -57.426 -39.098 -62.663  0.00  0.00    +0.000 N 
ATOM      4  C   UNL     1     -56.239 -38.528 -63.156  0.00  0.00    +0.000 A 
ATOM      5  C   UNL     1     -56.038 -37.135 -63.109  0.00  0.00    +0.000 A 
ATOM      6 BR   UNL     1     -57.330 -35.985 -62.325  0.00  0.00    +0.000 Br
ATOM      7  C   UNL     1     -54.887 -36.559 -63.642  0.00  0.00    +0.000 A 
ATOM      8  C   UNL     1     -53.923 -37.372 -64.232  0.00  0.00    +0.000 A 
ATOM      9  C   UNL     1     -54.113 -38.756 -64.315  0.00  0.00    +0.000 A 
ATOM     10 CL   UNL     1     -52.827 -39.630 -65.072  0.00  0.00    +0.000 Cl
ATOM     11  C   UNL     1     -55.289 -39.339 -63.799  0.00  0.00    +0.000 A 
ATOM     12  C   UNL     1     -55.581 -40.798 -63.871  0.00  0.00    +0.000 A 
ATOM     13  O   UNL     1     -54.752 -41.567 -64.343  0.00  0.00    +0.000 OA
ATOM     14  H   UNL     1     -57.882 -38.586 -61.908  0.00  0.00    +0.000 HD
ENDROOT
BRANCH   1  16
ATOM     15  C   UNL     1     -56.562 -43.766 -62.433  0.00  0.00    +0.000 C 
ATOM     16  C   UNL     1     -57.159 -42.818 -63.450  0.00  0.00    +0.000 C 
ATOM     17  O   UNL     1     -57.837 -43.270 -64.372  0.00  0.00    +0.000 OA
ENDBRANCH   1  16
BRANCH   2  18
ATOM     18  S   UNL     1     -59.126 -41.001 -61.735  0.00  0.00    +0.000 S 
ATOM     19  O   UNL     1     -59.085 -40.110 -60.522  0.00  0.00    +0.000 OA
BRANCH  18  20
ATOM     20  C   UNL     1     -60.465 -40.348 -62.795  0.00  0.00    +0.000 C 
BRANCH  20  21
ATOM     21  C   UNL     1     -61.069 -39.109 -62.221  0.00  0.00    +0.000 A 
ATOM     22  C   UNL     1     -62.247 -38.965 -61.441  0.00  0.00    +0.000 A 
ATOM     23  C   UNL     1     -62.294 -37.629 -61.129  0.00  0.00    +0.000 A 
ATOM     24  C   UNL     1     -63.222 -36.779 -60.359  0.00  0.00    +0.000 C 
ATOM     25  O   UNL     1     -61.215 -37.008 -61.675  0.00  0.00    +0.000 OA
ATOM     26  N   UNL     1     -60.442 -37.933 -62.355  0.00  0.00    +0.000 NA
ENDBRANCH  20  21
ENDBRANCH  18  20
ENDBRANCH   2  18
TORSDOF 4
