REMARK VINA RESULT:    -6.233     14.230     17.271
REMARK INTER + INTRA:          -9.210
REMARK INTER:                  -8.845
REMARK INTRA:                  -0.365
REMARK UNBOUND:                -1.155
REMARK  Name = 
REMARK  6 active torsions:
REMARK  status: ('A' for Active; 'I' for Inactive)
REMARK    1  A    between atoms: C_1  and  C_2
REMARK    2  A    between atoms: C_4  and  C_5
REMARK    3  A    between atoms: C_5  and  S_6
REMARK    4  A    between atoms: S_6  and  C_8
REMARK    5  A    between atoms: C_20  and  C_21
REMARK    6  A    between atoms: C_21  and  C_23
REMARK                            x       y       z     vdW  Elec       q    Type
REMARK                         _______ _______ _______ _____ _____    ______ ____
ROOT
ATOM      1  C   UNL     1     -55.227 -42.321 -77.752  0.00  0.00    +0.000 A 
ATOM      2  N   UNL     1     -56.551 -42.732 -77.503  0.00  0.00    +0.000 N 
ATOM      3  C   UNL     1     -57.149 -42.515 -76.232  0.00  0.00    +0.000 A 
ATOM      4  C   UNL     1     -58.541 -42.531 -76.026  0.00  0.00    +0.000 A 
ATOM      5 BR   UNL     1     -59.746 -42.670 -77.485  0.00  0.00    +0.000 Br
ATOM      6  C   UNL     1     -59.085 -42.422 -74.738  0.00  0.00    +0.000 A 
ATOM      7  C   UNL     1     -58.234 -42.266 -73.638  0.00  0.00    +0.000 A 
ATOM      8  C   UNL     1     -56.851 -42.245 -73.818  0.00  0.00    +0.000 A 
ATOM      9 CL   UNL     1     -55.892 -41.975 -72.407  0.00  0.00    +0.000 Cl
ATOM     10  C   UNL     1     -56.318 -42.391 -75.108  0.00  0.00    +0.000 A 
ATOM     11  C   UNL     1     -54.870 -42.466 -75.385  0.00  0.00    +0.000 A 
ATOM     12  O   UNL     1     -54.082 -42.935 -74.574  0.00  0.00    +0.000 OA
ATOM     13  C   UNL     1     -54.389 -42.022 -76.734  0.00  0.00    +0.000 A 
ATOM     14  H   UNL     1     -57.176 -42.530 -78.296  0.00  0.00    +0.000 HD
ENDROOT
BRANCH   1  15
ATOM     15  S   UNL     1     -54.962 -41.828 -79.475  0.00  0.00    +0.000 S 
ATOM     16  O   UNL     1     -56.340 -41.848 -80.080  0.00  0.00    +0.000 OA
BRANCH  15  17
ATOM     17  C   UNL     1     -53.977 -43.096 -80.325  0.00  0.00    +0.000 C 
BRANCH  17  21
ATOM     18  C   UNL     1     -50.193 -42.064 -83.617  0.00  0.00    +0.000 C 
ATOM     19  C   UNL     1     -51.406 -42.384 -82.841  0.00  0.00    +0.000 A 
ATOM     20  C   UNL     1     -51.675 -42.592 -81.509  0.00  0.00    +0.000 A 
ATOM     21  C   UNL     1     -53.076 -42.762 -81.452  0.00  0.00    +0.000 A 
ATOM     22  N   UNL     1     -53.606 -42.729 -82.688  0.00  0.00    +0.000 NA
ATOM     23  O   UNL     1     -52.557 -42.491 -83.552  0.00  0.00    +0.000 OA
ENDBRANCH  17  21
ENDBRANCH  15  17
ENDBRANCH   1  15
BRANCH  13  24
ATOM     24  C   UNL     1     -53.159 -41.182 -76.685  0.00  0.00    +0.000 C 
ATOM     25  O   UNL     1     -53.240 -39.966 -76.651  0.00  0.00    +0.000 OA
BRANCH  24  26
ATOM     26  C   UNL     1     -51.844 -41.848 -76.629  0.00  0.00    +0.000 C 
ATOM     27  C   UNL     1     -50.845 -41.431 -75.581  0.00  0.00    +0.000 C 
ATOM     28  C   UNL     1     -50.580 -41.120 -77.022  0.00  0.00    +0.000 C 
ENDBRANCH  24  26
ENDBRANCH  13  24
TORSDOF 5
