REMARK  Name = 
REMARK  8 active torsions:
REMARK  status: ('A' for Active; 'I' for Inactive)
REMARK    1  A    between atoms: C_1  and  C_2
REMARK    2  A    between atoms: C_4  and  C_5
REMARK    3  A    between atoms: C_5  and  S_6
REMARK    4  A    between atoms: S_6  and  C_8
REMARK    5  A    between atoms: C_20  and  C_21
REMARK    6  A    between atoms: C_21  and  C_23
REMARK    7  A    between atoms: C_23  and  C_24
REMARK    8  A    between atoms: C_23  and  C_25
REMARK                            x       y       z     vdW  Elec       q    Type
REMARK                         _______ _______ _______ _____ _____    ______ ____
ROOT
ATOM      1  C   UNL     1      -3.720  -4.142   0.446  0.00  0.00    +0.000 A 
ATOM      2  N   UNL     1      -3.632  -5.503   0.722  0.00  0.00    +0.000 N 
ATOM      3  C   UNL     1      -4.699  -6.382   0.452  0.00  0.00    +0.000 A 
ATOM      4  C   UNL     1      -4.511  -7.771   0.322  0.00  0.00    +0.000 A 
ATOM      5 BR   UNL     1      -2.771  -8.526   0.342  0.00  0.00    +0.000 Br
ATOM      6  C   UNL     1      -5.598  -8.629   0.132  0.00  0.00    +0.000 A 
ATOM      7  C   UNL     1      -6.888  -8.111   0.064  0.00  0.00    +0.000 A 
ATOM      8  C   UNL     1      -7.097  -6.725   0.184  0.00  0.00    +0.000 A 
ATOM      9 CL   UNL     1      -8.731  -6.194   0.012  0.00  0.00    +0.000 Cl
ATOM     10  C   UNL     1      -6.001  -5.860   0.383  0.00  0.00    +0.000 A 
ATOM     11  C   UNL     1      -6.119  -4.389   0.554  0.00  0.00    +0.000 A 
ATOM     12  O   UNL     1      -7.170  -3.899   0.956  0.00  0.00    +0.000 OA
ATOM     13  C   UNL     1      -4.905  -3.519   0.241  0.00  0.00    +0.000 A 
ATOM     14  H   UNL     1      -2.686  -5.892   0.606  0.00  0.00    +0.000 HD
ENDROOT
BRANCH   1  15
ATOM     15  S   UNL     1      -2.064  -3.400   0.190  0.00  0.00    +0.000 S 
ATOM     16  O   UNL     1      -1.118  -4.551   0.401  0.00  0.00    +0.000 OA
BRANCH  15  17
ATOM     17  C   UNL     1      -1.898  -2.250   1.597  0.00  0.00    +0.000 C 
BRANCH  17  21
ATOM     18  C   UNL     1       3.124  -1.002   1.751  0.00  0.00    +0.000 C 
ATOM     19  C   UNL     1       1.659  -1.193   1.828  0.00  0.00    +0.000 A 
ATOM     20  C   UNL     1       0.753  -2.034   1.223  0.00  0.00    +0.000 A 
ATOM     21  C   UNL     1      -0.508  -1.691   1.791  0.00  0.00    +0.000 A 
ATOM     22  N   UNL     1      -0.353  -0.685   2.669  0.00  0.00    +0.000 NA
ATOM     23  O   UNL     1       0.995  -0.382   2.691  0.00  0.00    +0.000 OA
ENDBRANCH  17  21
ENDBRANCH  15  17
ENDBRANCH   1  15
BRANCH  13  24
ATOM     24  C   UNL     1      -5.183  -2.127  -0.281  0.00  0.00    +0.000 C 
ATOM     25  O   UNL     1      -6.208  -1.534   0.053  0.00  0.00    +0.000 OA
BRANCH  24  26
ATOM     26  C   UNL     1      -4.228  -1.471  -1.279  0.00  0.00    +0.000 C 
ATOM     27  C   UNL     1      -4.080  -2.302  -2.551  0.00  0.00    +0.000 C 
ATOM     28  C   UNL     1      -4.655  -0.042  -1.625  0.00  0.00    +0.000 C 
ENDBRANCH  24  26
ENDBRANCH  13  24
TORSDOF 5
