=
 OpenBabel09162516053D

 26 28  0  0  0  0  0  0  0  0999 V2000
  -56.9110  -40.7870  -61.8960 C   0  0  0  0  0  0  0  0  0  0  0  0
  -55.9760  -41.5430  -62.5120 C   0  0  0  0  0  0  0  0  0  0  0  0
  -54.9660  -41.0010  -63.2830 N   0  0  0  0  0  0  0  0  0  0  0  0
  -54.8800  -39.6310  -63.5820 C   0  0  0  0  0  0  0  0  0  0  0  0
  -53.8140  -39.1220  -64.3410 C   0  0  0  0  0  0  0  0  0  0  0  0
  -52.4850  -40.2790  -65.0540 Br  0  0  0  0  0  0  0  0  0  0  0  0
  -53.6940  -37.7540  -64.5880 C   0  0  0  0  0  3  0  0  0  0  0  0
  -54.6450  -36.8770  -64.0810 C   0  0  0  0  0  3  0  0  0  0  0  0
  -55.7120  -37.3540  -63.3150 C   0  0  0  0  0  0  0  0  0  0  0  0
  -56.8290  -36.1460  -62.7820 Cl  0  0  0  0  0  0  0  0  0  0  0  0
  -55.8120  -38.7330  -63.0370 C   0  0  0  0  0  0  0  0  0  0  0  0
  -56.8610  -39.3040  -62.1600 C   0  0  0  0  0  0  0  0  0  0  0  0
  -57.6930  -38.5650  -61.6530 O   0  0  0  0  0  0  0  0  0  0  0  0
  -54.4390  -41.6340  -63.8790 H   0  0  0  0  0  0  0  0  0  0  0  0
  -57.6420  -41.5100  -59.5090 C   0  0  0  0  0  1  0  0  0  0  0  0
  -57.9760  -41.3060  -60.9670 C   0  0  0  0  0  0  0  0  0  0  0  0
  -59.0940  -41.5960  -61.3740 O   0  0  0  0  0  0  0  0  0  0  0  0
  -56.0520  -43.3740  -62.4660 S   0  0  1  0  0  0  0  0  0  0  0  0
  -55.7070  -43.7860  -63.8720 O   0  0  0  0  0  0  0  0  0  0  0  0
  -54.5620  -43.7260  -61.4640 C   0  0  0  0  0  2  0  0  0  0  0  0
  -53.4410  -44.2640  -62.2920 C   0  0  0  0  0  0  0  0  0  0  0  0
  -52.4290  -43.5560  -62.9900 C   0  0  0  0  0  3  0  0  0  0  0  0
  -51.6180  -44.5350  -63.5180 C   0  0  0  0  0  0  0  0  0  0  0  0
  -50.3940  -44.5360  -64.3440 C   0  0  0  0  0  1  0  0  0  0  0  0
  -52.1060  -45.7530  -63.1550 O   0  0  0  0  0  0  0  0  0  0  0  0
  -53.2420  -45.5850  -62.3790 N   0  0  0  0  0  0  0  0  0  0  0  0
  1 16  1  0  0  0  0
  2 18  1  0  0  0  0
  2  1  2  0  0  0  0
  3  2  1  0  0  0  0
  4  3  1  0  0  0  0
  4 11  1  0  0  0  0
  5  4  2  0  0  0  0
  6  5  1  0  0  0  0
  7  5  1  0  0  0  0
  7  8  2  0  0  0  0
  8  9  1  0  0  0  0
  9 11  2  0  0  0  0
  9 10  1  0  0  0  0
 11 12  1  0  0  0  0
 12  1  1  0  0  0  0
 12 13  2  0  0  0  0
 14  3  1  0  0  0  0
 16 15  1  0  0  0  0
 17 16  2  0  0  0  0
 18 19  2  6  0  0  0
 18 20  1  0  0  0  0
 21 20  1  0  0  0  0
 22 21  1  0  0  0  0
 23 25  1  0  0  0  0
 23 22  2  0  0  0  0
 24 23  1  0  0  0  0
 25 26  1  0  0  0  0
 26 21  2  0  0  0  0
M  END
>  <MODEL>
1

>  <REMARK>
 VINA RESULT:    -6.635      0.000      0.000
 INTER + INTRA:          -9.043
 INTER:                  -8.187
 INTRA:                  -0.856
 UNBOUND:                -0.856
  Name = 
  6 active torsions:
  status: ('A' for Active; 'I' for Inactive)
    1  A    between atoms: C_1  and  C_2
    2  A    between atoms: C_2  and  C_4
    3  A    between atoms: C_5  and  S_6
    4  A    between atoms: S_6  and  C_8
    5  A    between atoms: C_8  and  C_9
    6  A    between atoms: C_11  and  C_12
                            x       y       z     vdW  Elec       q    Type
                         _______ _______ _______ _____ _____    ______ ____

>  <TORSDO>
F 4

$$$$
