REMARK VINA RESULT:    -6.583      3.229      5.389
REMARK INTER + INTRA:          -9.549
REMARK INTER:                  -8.645
REMARK INTRA:                  -0.904
REMARK UNBOUND:                -1.042
REMARK  Name = 
REMARK  8 active torsions:
REMARK  status: ('A' for Active; 'I' for Inactive)
REMARK    1  A    between atoms: C_1  and  C_2
REMARK    2  A    between atoms: C_4  and  C_5
REMARK    3  A    between atoms: C_5  and  S_6
REMARK    4  A    between atoms: S_6  and  C_8
REMARK    5  A    between atoms: C_20  and  C_21
REMARK    6  A    between atoms: C_21  and  C_23
REMARK    7  A    between atoms: C_23  and  C_24
REMARK    8  A    between atoms: C_23  and  C_25
REMARK                            x       y       z     vdW  Elec       q    Type
REMARK                         _______ _______ _______ _____ _____    ______ ____
ROOT
ATOM      1  C   UNL     1     -57.514 -40.969 -62.945  0.00  0.00    +0.000 A 
ATOM      2  N   UNL     1     -57.073 -39.731 -62.488  0.00  0.00    +0.000 N 
ATOM      3  C   UNL     1     -55.990 -39.064 -63.094  0.00  0.00    +0.000 A 
ATOM      4  C   UNL     1     -55.788 -37.678 -62.948  0.00  0.00    +0.000 A 
ATOM      5 BR   UNL     1     -57.063 -36.595 -62.055  0.00  0.00    +0.000 Br
ATOM      6  C   UNL     1     -54.663 -37.054 -63.494  0.00  0.00    +0.000 A 
ATOM      7  C   UNL     1     -53.726 -37.805 -64.199  0.00  0.00    +0.000 A 
ATOM      8  C   UNL     1     -53.913 -39.190 -64.362  0.00  0.00    +0.000 A 
ATOM      9 CL   UNL     1     -52.723 -40.002 -65.314  0.00  0.00    +0.000 Cl
ATOM     10  C   UNL     1     -55.045 -39.820 -63.805  0.00  0.00    +0.000 A 
ATOM     11  C   UNL     1     -55.316 -41.278 -63.893  0.00  0.00    +0.000 A 
ATOM     12  O   UNL     1     -54.392 -42.066 -64.071  0.00  0.00    +0.000 OA
ATOM     13  C   UNL     1     -56.754 -41.763 -63.736  0.00  0.00    +0.000 A 
ATOM     14  H   UNL     1     -57.823 -39.131 -62.117  0.00  0.00    +0.000 HD
ENDROOT
BRANCH   1  15
ATOM     15  S   UNL     1     -59.275 -41.251 -62.523  0.00  0.00    +0.000 S 
ATOM     16  O   UNL     1     -59.849 -39.864 -62.428  0.00  0.00    +0.000 OA
BRANCH  15  17
ATOM     17  C   UNL     1     -59.196 -41.960 -60.844  0.00  0.00    +0.000 C 
BRANCH  17  21
ATOM     18  C   UNL     1     -61.540 -46.565 -61.157  0.00  0.00    +0.000 C 
ATOM     19  C   UNL     1     -60.914 -45.257 -60.865  0.00  0.00    +0.000 A 
ATOM     20  C   UNL     1     -60.165 -44.353 -61.584  0.00  0.00    +0.000 A 
ATOM     21  C   UNL     1     -59.917 -43.278 -60.683  0.00  0.00    +0.000 A 
ATOM     22  N   UNL     1     -60.474 -43.546 -59.489  0.00  0.00    +0.000 NA
ATOM     23  O   UNL     1     -61.095 -44.775 -59.609  0.00  0.00    +0.000 OA
ENDBRANCH  17  21
ENDBRANCH  15  17
ENDBRANCH   1  15
BRANCH  13  24
ATOM     24  C   UNL     1     -57.138 -43.011 -64.500  0.00  0.00    +0.000 C 
ATOM     25  O   UNL     1     -57.342 -44.066 -63.899  0.00  0.00    +0.000 OA
BRANCH  24  26
ATOM     26  C   UNL     1     -57.211 -42.991 -66.027  0.00  0.00    +0.000 C 
ATOM     27  C   UNL     1     -58.048 -44.147 -66.569  0.00  0.00    +0.000 C 
ATOM     28  C   UNL     1     -57.744 -41.657 -66.557  0.00  0.00    +0.000 C 
ENDBRANCH  24  26
ENDBRANCH  13  24
TORSDOF 5
