REMARK VINA RESULT:    -7.456      0.000      0.000
REMARK INTER + INTRA:         -10.546
REMARK INTER:                  -9.635
REMARK INTRA:                  -0.911
REMARK UNBOUND:                -0.911
REMARK  Name = 
REMARK  6 active torsions:
REMARK  status: ('A' for Active; 'I' for Inactive)
REMARK    1  A    between atoms: C_1  and  C_2
REMARK    2  A    between atoms: C_4  and  C_5
REMARK    3  A    between atoms: C_5  and  S_6
REMARK    4  A    between atoms: S_6  and  C_8
REMARK    5  A    between atoms: C_20  and  C_21
REMARK    6  A    between atoms: C_21  and  C_23
REMARK                            x       y       z     vdW  Elec       q    Type
REMARK                         _______ _______ _______ _____ _____    ______ ____
ROOT
ATOM      1  C   UNL     1     -55.726 -42.810 -76.762  0.00  0.00    +0.000 A 
ATOM      2  N   UNL     1     -54.402 -43.156 -76.431  0.00  0.00    +0.000 N 
ATOM      3  C   UNL     1     -53.405 -42.151 -76.294  0.00  0.00    +0.000 A 
ATOM      4  C   UNL     1     -52.196 -42.358 -75.604  0.00  0.00    +0.000 A 
ATOM      5 BR   UNL     1     -51.882 -43.960 -74.638  0.00  0.00    +0.000 Br
ATOM      6  C   UNL     1     -51.193 -41.378 -75.587  0.00  0.00    +0.000 A 
ATOM      7  C   UNL     1     -51.405 -40.160 -76.243  0.00  0.00    +0.000 A 
ATOM      8  C   UNL     1     -52.596 -39.931 -76.933  0.00  0.00    +0.000 A 
ATOM      9 CL   UNL     1     -52.788 -38.371 -77.648  0.00  0.00    +0.000 Cl
ATOM     10  C   UNL     1     -53.576 -40.934 -76.972  0.00  0.00    +0.000 A 
ATOM     11  C   UNL     1     -54.828 -40.816 -77.745  0.00  0.00    +0.000 A 
ATOM     12  O   UNL     1     -54.889 -40.159 -78.777  0.00  0.00    +0.000 OA
ATOM     13  C   UNL     1     -56.021 -41.595 -77.275  0.00  0.00    +0.000 A 
ATOM     14  H   UNL     1     -54.359 -43.883 -75.704  0.00  0.00    +0.000 HD
ENDROOT
BRANCH   1  15
ATOM     15  S   UNL     1     -56.944 -43.934 -76.028  0.00  0.00    +0.000 S 
ATOM     16  O   UNL     1     -57.673 -44.513 -77.210  0.00  0.00    +0.000 OA
BRANCH  15  17
ATOM     17  C   UNL     1     -58.148 -42.976 -75.062  0.00  0.00    +0.000 C 
BRANCH  17  21
ATOM     18  C   UNL     1     -56.010 -40.886 -70.905  0.00  0.00    +0.000 C 
ATOM     19  C   UNL     1     -56.780 -41.343 -72.077  0.00  0.00    +0.000 A 
ATOM     20  C   UNL     1     -56.570 -42.270 -73.070  0.00  0.00    +0.000 A 
ATOM     21  C   UNL     1     -57.767 -42.264 -73.821  0.00  0.00    +0.000 A 
ATOM     22  N   UNL     1     -58.616 -41.336 -73.346  0.00  0.00    +0.000 NA
ATOM     23  O   UNL     1     -57.995 -40.765 -72.255  0.00  0.00    +0.000 OA
ENDBRANCH  17  21
ENDBRANCH  15  17
ENDBRANCH   1  15
BRANCH  13  24
ATOM     24  C   UNL     1     -57.292 -40.818 -77.302  0.00  0.00    +0.000 C 
ATOM     25  O   UNL     1     -57.501 -39.943 -76.479  0.00  0.00    +0.000 OA
BRANCH  24  26
ATOM     26  C   UNL     1     -58.272 -41.093 -78.369  0.00  0.00    +0.000 C 
ATOM     27  C   UNL     1     -59.558 -40.308 -78.415  0.00  0.00    +0.000 C 
ATOM     28  C   UNL     1     -59.590 -41.765 -78.068  0.00  0.00    +0.000 C 
ENDBRANCH  24  26
ENDBRANCH  13  24
TORSDOF 5
