REMARK VINA RESULT:    -6.502     12.313     13.452
REMARK INTER + INTRA:          -9.343
REMARK INTER:                  -8.288
REMARK INTRA:                  -1.055
REMARK UNBOUND:                -0.940
REMARK  Name = 
REMARK  6 active torsions:
REMARK  status: ('A' for Active; 'I' for Inactive)
REMARK    1  A    between atoms: C_1  and  C_2
REMARK    2  A    between atoms: C_4  and  C_5
REMARK    3  A    between atoms: C_5  and  S_6
REMARK    4  A    between atoms: S_6  and  C_8
REMARK    5  A    between atoms: C_20  and  C_21
REMARK    6  A    between atoms: C_21  and  C_23
REMARK                            x       y       z     vdW  Elec       q    Type
REMARK                         _______ _______ _______ _____ _____    ______ ____
ROOT
ATOM      1  C   UNL     1     -55.637 -43.233 -77.229  0.00  0.00    +0.000 A 
ATOM      2  N   UNL     1     -54.336 -43.481 -76.750  0.00  0.00    +0.000 N 
ATOM      3  C   UNL     1     -53.434 -42.407 -76.515  0.00  0.00    +0.000 A 
ATOM      4  C   UNL     1     -52.298 -42.524 -75.693  0.00  0.00    +0.000 A 
ATOM      5 BR   UNL     1     -51.979 -44.097 -74.681  0.00  0.00    +0.000 Br
ATOM      6  C   UNL     1     -51.376 -41.474 -75.576  0.00  0.00    +0.000 A 
ATOM      7  C   UNL     1     -51.600 -40.276 -76.264  0.00  0.00    +0.000 A 
ATOM      8  C   UNL     1     -52.720 -40.136 -77.083  0.00  0.00    +0.000 A 
ATOM      9 CL   UNL     1     -52.943 -38.596 -77.832  0.00  0.00    +0.000 Cl
ATOM     10  C   UNL     1     -53.616 -41.207 -77.220  0.00  0.00    +0.000 A 
ATOM     11  C   UNL     1     -54.780 -41.182 -78.128  0.00  0.00    +0.000 A 
ATOM     12  O   UNL     1     -54.773 -40.534 -79.167  0.00  0.00    +0.000 OA
ATOM     13  C   UNL     1     -55.959 -42.044 -77.784  0.00  0.00    +0.000 A 
ATOM     14  H   UNL     1     -54.322 -44.202 -76.015  0.00  0.00    +0.000 HD
ENDROOT
BRANCH   1  15
ATOM     15  S   UNL     1     -56.844 -44.440 -76.622  0.00  0.00    +0.000 S 
ATOM     16  O   UNL     1     -56.019 -45.654 -76.292  0.00  0.00    +0.000 OA
BRANCH  15  17
ATOM     17  C   UNL     1     -57.973 -44.899 -77.969  0.00  0.00    +0.000 C 
BRANCH  17  21
ATOM     18  C   UNL     1     -62.955 -43.908 -77.323  0.00  0.00    +0.000 C 
ATOM     19  C   UNL     1     -61.583 -44.385 -77.577  0.00  0.00    +0.000 A 
ATOM     20  C   UNL     1     -60.335 -43.812 -77.526  0.00  0.00    +0.000 A 
ATOM     21  C   UNL     1     -59.444 -44.874 -77.801  0.00  0.00    +0.000 A 
ATOM     22  N   UNL     1     -60.125 -46.001 -78.070  0.00  0.00    +0.000 NA
ATOM     23  O   UNL     1     -61.461 -45.691 -77.928  0.00  0.00    +0.000 OA
ENDBRANCH  17  21
ENDBRANCH  15  17
ENDBRANCH   1  15
BRANCH  13  24
ATOM     24  C   UNL     1     -57.272 -41.360 -77.959  0.00  0.00    +0.000 C 
ATOM     25  O   UNL     1     -57.923 -41.520 -78.977  0.00  0.00    +0.000 OA
BRANCH  24  26
ATOM     26  C   UNL     1     -57.791 -40.526 -76.859  0.00  0.00    +0.000 C 
ATOM     27  C   UNL     1     -57.159 -40.621 -75.494  0.00  0.00    +0.000 C 
ATOM     28  C   UNL     1     -58.550 -41.137 -75.704  0.00  0.00    +0.000 C 
ENDBRANCH  24  26
ENDBRANCH  13  24
TORSDOF 5
