REMARK VINA RESULT:    -5.885      4.801      7.221
REMARK INTER + INTRA:          -7.909
REMARK INTER:                  -7.221
REMARK INTRA:                  -0.688
REMARK UNBOUND:                -0.647
REMARK  Name = 
REMARK  6 active torsions:
REMARK  status: ('A' for Active; 'I' for Inactive)
REMARK    1  A    between atoms: C_1  and  C_2
REMARK    2  A    between atoms: C_2  and  C_4
REMARK    3  A    between atoms: C_5  and  S_6
REMARK    4  A    between atoms: S_6  and  C_8
REMARK    5  A    between atoms: C_8  and  C_9
REMARK    6  A    between atoms: C_11  and  C_12
REMARK                            x       y       z     vdW  Elec       q    Type
REMARK                         _______ _______ _______ _____ _____    ______ ____
ROOT
ATOM      1  C   UNL     1     -53.937 -41.792 -79.740  0.00  0.00    +0.000 A 
ATOM      2  C   UNL     1     -54.833 -42.819 -79.591  0.00  0.00    +0.000 A 
ATOM      3  N   UNL     1     -54.932 -43.511 -78.413  0.00  0.00    +0.000 N 
ATOM      4  C   UNL     1     -54.048 -43.364 -77.338  0.00  0.00    +0.000 A 
ATOM      5  C   UNL     1     -54.094 -44.255 -76.246  0.00  0.00    +0.000 A 
ATOM      6 BR   UNL     1     -55.319 -45.710 -76.209  0.00  0.00    +0.000 Br
ATOM      7  C   UNL     1     -53.236 -44.097 -75.163  0.00  0.00    +0.000 A 
ATOM      8  C   UNL     1     -52.311 -43.056 -75.171  0.00  0.00    +0.000 A 
ATOM      9  C   UNL     1     -52.238 -42.176 -76.258  0.00  0.00    +0.000 A 
ATOM     10 CL   UNL     1     -51.013 -40.961 -76.155  0.00  0.00    +0.000 Cl
ATOM     11  C   UNL     1     -53.118 -42.331 -77.344  0.00  0.00    +0.000 A 
ATOM     12  C   UNL     1     -53.165 -41.414 -78.500  0.00  0.00    +0.000 A 
ATOM     13  O   UNL     1     -52.605 -40.326 -78.425  0.00  0.00    +0.000 OA
ATOM     14  H   UNL     1     -55.596 -44.287 -78.380  0.00  0.00    +0.000 HD
ENDROOT
BRANCH   1  16
ATOM     15  C   UNL     1     -54.315 -39.650 -81.191  0.00  0.00    +0.000 C 
ATOM     16  C   UNL     1     -53.642 -41.009 -80.993  0.00  0.00    +0.000 C 
ATOM     17  O   UNL     1     -52.880 -41.442 -81.830  0.00  0.00    +0.000 OA
ENDBRANCH   1  16
BRANCH   2  18
ATOM     18  S   UNL     1     -55.856 -43.517 -80.955  0.00  0.00    +0.000 S 
ATOM     19  O   UNL     1     -56.262 -44.875 -80.424  0.00  0.00    +0.000 OA
BRANCH  18  20
ATOM     20  C   UNL     1     -57.381 -42.485 -80.822  0.00  0.00    +0.000 C 
BRANCH  20  21
ATOM     21  C   UNL     1     -57.600 -41.496 -81.922  0.00  0.00    +0.000 A 
ATOM     22  C   UNL     1     -56.802 -41.150 -83.039  0.00  0.00    +0.000 A 
ATOM     23  C   UNL     1     -57.561 -40.229 -83.727  0.00  0.00    +0.000 A 
ATOM     24  C   UNL     1     -57.370 -39.474 -84.973  0.00  0.00    +0.000 C 
ATOM     25  O   UNL     1     -58.731 -40.027 -83.070  0.00  0.00    +0.000 OA
ATOM     26  N   UNL     1     -58.765 -40.825 -81.944  0.00  0.00    +0.000 NA
ENDBRANCH  20  21
ENDBRANCH  18  20
ENDBRANCH   2  18
TORSDOF 4
