REMARK VINA RESULT:    -6.128     14.513     17.041
REMARK INTER + INTRA:          -8.086
REMARK INTER:                  -7.338
REMARK INTRA:                  -0.748
REMARK UNBOUND:                -0.524
REMARK  Name = 
REMARK  6 active torsions:
REMARK  status: ('A' for Active; 'I' for Inactive)
REMARK    1  A    between atoms: C_1  and  C_2
REMARK    2  A    between atoms: C_2  and  C_4
REMARK    3  A    between atoms: C_5  and  S_6
REMARK    4  A    between atoms: S_6  and  C_8
REMARK    5  A    between atoms: C_8  and  C_9
REMARK    6  A    between atoms: C_11  and  C_12
REMARK                            x       y       z     vdW  Elec       q    Type
REMARK                         _______ _______ _______ _____ _____    ______ ____
ROOT
ATOM      1  C   UNL     1     -68.915 -51.380 -55.599  0.00  0.00    +0.000 A 
ATOM      2  C   UNL     1     -68.107 -50.301 -55.701  0.00  0.00    +0.000 A 
ATOM      3  N   UNL     1     -66.933 -50.155 -54.983  0.00  0.00    +0.000 N 
ATOM      4  C   UNL     1     -66.537 -51.056 -53.985  0.00  0.00    +0.000 A 
ATOM      5  C   UNL     1     -65.351 -50.844 -53.255  0.00  0.00    +0.000 A 
ATOM      6 BR   UNL     1     -64.291 -49.293 -53.540  0.00  0.00    +0.000 Br
ATOM      7  C   UNL     1     -64.921 -51.761 -52.301  0.00  0.00    +0.000 A 
ATOM      8  C   UNL     1     -65.671 -52.914 -52.070  0.00  0.00    +0.000 A 
ATOM      9  C   UNL     1     -66.841 -53.157 -52.798  0.00  0.00    +0.000 A 
ATOM     10 CL   UNL     1     -67.659 -54.629 -52.399  0.00  0.00    +0.000 Cl
ATOM     11  C   UNL     1     -67.273 -52.235 -53.772  0.00  0.00    +0.000 A 
ATOM     12  C   UNL     1     -68.511 -52.415 -54.582  0.00  0.00    +0.000 A 
ATOM     13  O   UNL     1     -69.229 -53.389 -54.390  0.00  0.00    +0.000 OA
ATOM     14  H   UNL     1     -66.612 -49.194 -54.863  0.00  0.00    +0.000 HD
ENDROOT
BRANCH   1  16
ATOM     15  C   UNL     1     -71.514 -51.245 -55.744  0.00  0.00    +0.000 C 
ATOM     16  C   UNL     1     -70.186 -51.576 -56.390  0.00  0.00    +0.000 C 
ATOM     17  O   UNL     1     -70.171 -52.010 -57.542  0.00  0.00    +0.000 OA
ENDBRANCH   1  16
BRANCH   2  18
ATOM     18  S   UNL     1     -68.591 -48.844 -56.682  0.00  0.00    +0.000 S 
ATOM     19  O   UNL     1     -69.675 -48.206 -55.855  0.00  0.00    +0.000 OA
BRANCH  18  20
ATOM     20  C   UNL     1     -67.101 -47.810 -56.442  0.00  0.00    +0.000 C 
BRANCH  20  21
ATOM     21  C   UNL     1     -66.319 -47.626 -57.702  0.00  0.00    +0.000 A 
ATOM     22  C   UNL     1     -65.079 -46.974 -57.922  0.00  0.00    +0.000 A 
ATOM     23  C   UNL     1     -64.833 -47.138 -59.264  0.00  0.00    +0.000 A 
ATOM     24  C   UNL     1     -63.767 -46.699 -60.183  0.00  0.00    +0.000 C 
ATOM     25  O   UNL     1     -65.837 -47.872 -59.811  0.00  0.00    +0.000 OA
ATOM     26  N   UNL     1     -66.767 -48.185 -58.837  0.00  0.00    +0.000 NA
ENDBRANCH  20  21
ENDBRANCH  18  20
ENDBRANCH   2  18
TORSDOF 4
