REMARK VINA RESULT:    -5.596     10.559     13.473
REMARK INTER + INTRA:          -7.987
REMARK INTER:                  -7.136
REMARK INTRA:                  -0.851
REMARK UNBOUND:                -1.082
REMARK  Name = 
REMARK  6 active torsions:
REMARK  status: ('A' for Active; 'I' for Inactive)
REMARK    1  A    between atoms: C_1  and  C_2
REMARK    2  A    between atoms: C_2  and  C_4
REMARK    3  A    between atoms: C_5  and  S_6
REMARK    4  A    between atoms: S_6  and  C_8
REMARK    5  A    between atoms: C_8  and  C_9
REMARK    6  A    between atoms: C_11  and  C_12
REMARK                            x       y       z     vdW  Elec       q    Type
REMARK                         _______ _______ _______ _____ _____    ______ ____
ROOT
ATOM      1  C   UNL     1     -58.812 -45.223 -77.909  0.00  0.00    +0.000 A 
ATOM      2  C   UNL     1     -58.020 -44.239 -77.430  0.00  0.00    +0.000 A 
ATOM      3  N   UNL     1     -56.757 -44.459 -76.915  0.00  0.00    +0.000 N 
ATOM      4  C   UNL     1     -56.236 -45.745 -76.705  0.00  0.00    +0.000 A 
ATOM      5  C   UNL     1     -54.961 -45.919 -76.134  0.00  0.00    +0.000 A 
ATOM      6 BR   UNL     1     -53.940 -44.427 -75.549  0.00  0.00    +0.000 Br
ATOM      7  C   UNL     1     -54.414 -47.189 -75.973  0.00  0.00    +0.000 A 
ATOM      8  C   UNL     1     -55.133 -48.305 -76.392  0.00  0.00    +0.000 A 
ATOM      9  C   UNL     1     -56.394 -48.157 -76.984  0.00  0.00    +0.000 A 
ATOM     10 CL   UNL     1     -57.167 -49.634 -77.443  0.00  0.00    +0.000 Cl
ATOM     11  C   UNL     1     -56.944 -46.871 -77.160  0.00  0.00    +0.000 A 
ATOM     12  C   UNL     1     -58.276 -46.628 -77.781  0.00  0.00    +0.000 A 
ATOM     13  O   UNL     1     -58.959 -47.573 -78.151  0.00  0.00    +0.000 OA
ATOM     14  H   UNL     1     -56.414 -43.739 -76.275  0.00  0.00    +0.000 HD
ENDROOT
BRANCH   1  16
ATOM     15  C   UNL     1     -61.401 -45.149 -77.631  0.00  0.00    +0.000 C 
ATOM     16  C   UNL     1     -60.179 -45.011 -78.508  0.00  0.00    +0.000 C 
ATOM     17  O   UNL     1     -60.326 -44.741 -79.702  0.00  0.00    +0.000 OA
ENDBRANCH   1  16
BRANCH   2  18
ATOM     18  S   UNL     1     -58.629 -42.528 -77.267  0.00  0.00    +0.000 S 
ATOM     19  O   UNL     1     -59.546 -42.597 -76.074  0.00  0.00    +0.000 OA
BRANCH  18  20
ATOM     20  C   UNL     1     -57.096 -41.721 -76.676  0.00  0.00    +0.000 C 
BRANCH  20  21
ATOM     21  C   UNL     1     -57.150 -41.400 -75.218  0.00  0.00    +0.000 A 
ATOM     22  C   UNL     1     -56.618 -42.104 -74.106  0.00  0.00    +0.000 A 
ATOM     23  C   UNL     1     -56.971 -41.348 -73.015  0.00  0.00    +0.000 A 
ATOM     24  C   UNL     1     -56.808 -41.498 -71.557  0.00  0.00    +0.000 C 
ATOM     25  O   UNL     1     -57.626 -40.237 -73.439  0.00  0.00    +0.000 OA
ATOM     26  N   UNL     1     -57.735 -40.260 -74.818  0.00  0.00    +0.000 NA
ENDBRANCH  20  21
ENDBRANCH  18  20
ENDBRANCH   2  18
TORSDOF 4
