REMARK VINA RESULT:    -7.693      0.000      0.000
REMARK INTER + INTRA:         -10.852
REMARK INTER:                  -9.942
REMARK INTRA:                  -0.910
REMARK UNBOUND:                -0.910
REMARK  Name = 
REMARK  6 active torsions:
REMARK  status: ('A' for Active; 'I' for Inactive)
REMARK    1  A    between atoms: C_1  and  C_2
REMARK    2  A    between atoms: C_4  and  C_5
REMARK    3  A    between atoms: C_5  and  S_6
REMARK    4  A    between atoms: S_6  and  C_8
REMARK    5  A    between atoms: C_20  and  C_21
REMARK    6  A    between atoms: C_21  and  C_23
REMARK                            x       y       z     vdW  Elec       q    Type
REMARK                         _______ _______ _______ _____ _____    ______ ____
ROOT
ATOM      1  C   UNL     1     -55.741 -41.420 -63.316  0.00  0.00    +0.000 A 
ATOM      2  N   UNL     1     -54.415 -41.059 -63.621  0.00  0.00    +0.000 N 
ATOM      3  C   UNL     1     -53.407 -42.053 -63.757  0.00  0.00    +0.000 A 
ATOM      4  C   UNL     1     -52.189 -41.825 -64.425  0.00  0.00    +0.000 A 
ATOM      5 BR   UNL     1     -51.873 -40.206 -65.360  0.00  0.00    +0.000 Br
ATOM      6  C   UNL     1     -51.178 -42.797 -64.441  0.00  0.00    +0.000 A 
ATOM      7  C   UNL     1     -51.390 -44.026 -63.807  0.00  0.00    +0.000 A 
ATOM      8  C   UNL     1     -52.590 -44.276 -63.141  0.00  0.00    +0.000 A 
ATOM      9 CL   UNL     1     -52.781 -45.848 -62.453  0.00  0.00    +0.000 Cl
ATOM     10  C   UNL     1     -53.579 -43.282 -63.101  0.00  0.00    +0.000 A 
ATOM     11  C   UNL     1     -54.842 -43.422 -62.350  0.00  0.00    +0.000 A 
ATOM     12  O   UNL     1     -54.915 -44.095 -61.330  0.00  0.00    +0.000 OA
ATOM     13  C   UNL     1     -56.034 -42.645 -62.827  0.00  0.00    +0.000 A 
ATOM     14  H   UNL     1     -54.366 -40.319 -64.335  0.00  0.00    +0.000 HD
ENDROOT
BRANCH   1  15
ATOM     15  S   UNL     1     -56.956 -40.294 -64.053  0.00  0.00    +0.000 S 
ATOM     16  O   UNL     1     -57.770 -39.812 -62.883  0.00  0.00    +0.000 OA
BRANCH  15  17
ATOM     17  C   UNL     1     -58.069 -41.231 -65.141  0.00  0.00    +0.000 C 
BRANCH  17  21
ATOM     18  C   UNL     1     -55.716 -42.882 -69.378  0.00  0.00    +0.000 C 
ATOM     19  C   UNL     1     -56.571 -42.490 -68.242  0.00  0.00    +0.000 A 
ATOM     20  C   UNL     1     -56.344 -41.908 -67.017  0.00  0.00    +0.000 A 
ATOM     21  C   UNL     1     -57.632 -41.731 -66.464  0.00  0.00    +0.000 A 
ATOM     22  N   UNL     1     -58.570 -42.243 -67.281  0.00  0.00    +0.000 NA
ATOM     23  O   UNL     1     -57.901 -42.715 -68.391  0.00  0.00    +0.000 OA
ENDBRANCH  17  21
ENDBRANCH  15  17
ENDBRANCH   1  15
BRANCH  13  24
ATOM     24  C   UNL     1     -57.299 -43.433 -62.834  0.00  0.00    +0.000 C 
ATOM     25  O   UNL     1     -57.527 -44.232 -63.725  0.00  0.00    +0.000 OA
BRANCH  24  26
ATOM     26  C   UNL     1     -58.248 -43.264 -61.717  0.00  0.00    +0.000 C 
ATOM     27  C   UNL     1     -59.568 -43.990 -61.750  0.00  0.00    +0.000 C 
ATOM     28  C   UNL     1     -59.538 -42.499 -61.895  0.00  0.00    +0.000 C 
ENDBRANCH  24  26
ENDBRANCH  13  24
TORSDOF 5
