REMARK VINA RESULT:    -5.208     10.730     14.004
REMARK INTER + INTRA:          -7.784
REMARK INTER:                  -6.629
REMARK INTRA:                  -1.154
REMARK UNBOUND:                -1.054
REMARK  Name = 
REMARK  8 active torsions:
REMARK  status: ('A' for Active; 'I' for Inactive)
REMARK    1  A    between atoms: C_1  and  C_2
REMARK    2  A    between atoms: C_4  and  C_5
REMARK    3  A    between atoms: C_5  and  S_6
REMARK    4  A    between atoms: S_6  and  C_8
REMARK    5  A    between atoms: C_20  and  C_21
REMARK    6  A    between atoms: C_21  and  C_23
REMARK    7  A    between atoms: C_23  and  C_24
REMARK    8  A    between atoms: C_23  and  C_25
REMARK                            x       y       z     vdW  Elec       q    Type
REMARK                         _______ _______ _______ _____ _____    ______ ____
ROOT
ATOM      1  C   UNL     1     -65.910 -42.555 -69.590  0.00  0.00    +0.000 A 
ATOM      2  N   UNL     1     -66.896 -42.138 -68.701  0.00  0.00    +0.000 N 
ATOM      3  C   UNL     1     -66.618 -41.225 -67.664  0.00  0.00    +0.000 A 
ATOM      4  C   UNL     1     -67.630 -40.479 -67.032  0.00  0.00    +0.000 A 
ATOM      5 BR   UNL     1     -69.420 -40.540 -67.655  0.00  0.00    +0.000 Br
ATOM      6  C   UNL     1     -67.337 -39.639 -65.954  0.00  0.00    +0.000 A 
ATOM      7  C   UNL     1     -66.027 -39.529 -65.496  0.00  0.00    +0.000 A 
ATOM      8  C   UNL     1     -65.000 -40.260 -66.119  0.00  0.00    +0.000 A 
ATOM      9 CL   UNL     1     -63.407 -39.987 -65.509  0.00  0.00    +0.000 Cl
ATOM     10  C   UNL     1     -65.296 -41.113 -67.202  0.00  0.00    +0.000 A 
ATOM     11  C   UNL     1     -64.291 -41.951 -67.904  0.00  0.00    +0.000 A 
ATOM     12  O   UNL     1     -63.255 -42.278 -67.332  0.00  0.00    +0.000 OA
ATOM     13  C   UNL     1     -64.589 -42.406 -69.330  0.00  0.00    +0.000 A 
ATOM     14  H   UNL     1     -67.835 -42.075 -69.118  0.00  0.00    +0.000 HD
ENDROOT
BRANCH   1  15
ATOM     15  S   UNL     1     -66.630 -43.100 -71.184  0.00  0.00    +0.000 S 
ATOM     16  O   UNL     1     -66.324 -41.965 -72.124  0.00  0.00    +0.000 OA
BRANCH  15  17
ATOM     17  C   UNL     1     -68.425 -43.108 -70.853  0.00  0.00    +0.000 C 
BRANCH  17  21
ATOM     18  C   UNL     1     -70.846 -47.651 -70.306  0.00  0.00    +0.000 C 
ATOM     19  C   UNL     1     -70.054 -46.401 -70.287  0.00  0.00    +0.000 A 
ATOM     20  C   UNL     1     -69.880 -45.345 -71.152  0.00  0.00    +0.000 A 
ATOM     21  C   UNL     1     -68.989 -44.459 -70.481  0.00  0.00    +0.000 A 
ATOM     22  N   UNL     1     -68.641 -44.979 -69.291  0.00  0.00    +0.000 NA
ATOM     23  O   UNL     1     -69.307 -46.183 -69.174  0.00  0.00    +0.000 OA
ENDBRANCH  17  21
ENDBRANCH  15  17
ENDBRANCH   1  15
BRANCH  13  24
ATOM     24  C   UNL     1     -63.401 -42.587 -70.248  0.00  0.00    +0.000 C 
ATOM     25  O   UNL     1     -63.101 -43.707 -70.659  0.00  0.00    +0.000 OA
BRANCH  24  26
ATOM     26  C   UNL     1     -62.523 -41.391 -70.620  0.00  0.00    +0.000 C 
ATOM     27  C   UNL     1     -61.308 -41.815 -71.442  0.00  0.00    +0.000 C 
ATOM     28  C   UNL     1     -63.313 -40.309 -71.359  0.00  0.00    +0.000 C 
ENDBRANCH  24  26
ENDBRANCH  13  24
TORSDOF 5
