REMARK VINA RESULT:    -5.793      3.668      6.674
REMARK INTER + INTRA:          -8.336
REMARK INTER:                  -7.369
REMARK INTRA:                  -0.967
REMARK UNBOUND:                -0.850
REMARK  Name = 
REMARK  6 active torsions:
REMARK  status: ('A' for Active; 'I' for Inactive)
REMARK    1  A    between atoms: C_1  and  C_2
REMARK    2  A    between atoms: C_4  and  C_5
REMARK    3  A    between atoms: C_5  and  S_6
REMARK    4  A    between atoms: S_6  and  C_8
REMARK    5  A    between atoms: C_20  and  C_21
REMARK    6  A    between atoms: C_21  and  C_23
REMARK                            x       y       z     vdW  Elec       q    Type
REMARK                         _______ _______ _______ _____ _____    ______ ____
ROOT
ATOM      1  C   UNL     1     -55.620 -42.032 -78.874  0.00  0.00    +0.000 A 
ATOM      2  N   UNL     1     -56.089 -42.517 -80.111  0.00  0.00    +0.000 N 
ATOM      3  C   UNL     1     -57.482 -42.700 -80.334  0.00  0.00    +0.000 A 
ATOM      4  C   UNL     1     -58.046 -42.797 -81.620  0.00  0.00    +0.000 A 
ATOM      5 BR   UNL     1     -56.998 -42.507 -83.174  0.00  0.00    +0.000 Br
ATOM      6  C   UNL     1     -59.407 -43.087 -81.795  0.00  0.00    +0.000 A 
ATOM      7  C   UNL     1     -60.228 -43.257 -80.674  0.00  0.00    +0.000 A 
ATOM      8  C   UNL     1     -59.691 -43.164 -79.390  0.00  0.00    +0.000 A 
ATOM      9 CL   UNL     1     -60.800 -43.318 -78.075  0.00  0.00    +0.000 Cl
ATOM     10  C   UNL     1     -58.321 -42.908 -79.229  0.00  0.00    +0.000 A 
ATOM     11  C   UNL     1     -57.649 -42.877 -77.915  0.00  0.00    +0.000 A 
ATOM     12  O   UNL     1     -58.039 -43.557 -76.975  0.00  0.00    +0.000 OA
ATOM     13  C   UNL     1     -56.411 -42.041 -77.778  0.00  0.00    +0.000 A 
ATOM     14  H   UNL     1     -55.593 -42.095 -80.908  0.00  0.00    +0.000 HD
ENDROOT
BRANCH   1  15
ATOM     15  S   UNL     1     -54.113 -41.040 -79.042  0.00  0.00    +0.000 S 
ATOM     16  O   UNL     1     -53.698 -41.238 -80.475  0.00  0.00    +0.000 OA
BRANCH  15  17
ATOM     17  C   UNL     1     -52.804 -41.742 -77.995  0.00  0.00    +0.000 C 
BRANCH  17  21
ATOM     18  C   UNL     1     -49.309 -39.487 -75.009  0.00  0.00    +0.000 C 
ATOM     19  C   UNL     1     -50.407 -39.945 -75.881  0.00  0.00    +0.000 A 
ATOM     20  C   UNL     1     -50.712 -41.127 -76.512  0.00  0.00    +0.000 A 
ATOM     21  C   UNL     1     -51.970 -40.896 -77.111  0.00  0.00    +0.000 A 
ATOM     22  N   UNL     1     -52.362 -39.625 -76.910  0.00  0.00    +0.000 NA
ATOM     23  O   UNL     1     -51.382 -39.036 -76.139  0.00  0.00    +0.000 OA
ENDBRANCH  17  21
ENDBRANCH  15  17
ENDBRANCH   1  15
BRANCH  13  24
ATOM     24  C   UNL     1     -56.366 -41.237 -76.524  0.00  0.00    +0.000 C 
ATOM     25  O   UNL     1     -57.104 -40.279 -76.375  0.00  0.00    +0.000 OA
BRANCH  24  26
ATOM     26  C   UNL     1     -55.446 -41.650 -75.447  0.00  0.00    +0.000 C 
ATOM     27  C   UNL     1     -55.037 -43.097 -75.336  0.00  0.00    +0.000 C 
ATOM     28  C   UNL     1     -55.925 -42.495 -74.290  0.00  0.00    +0.000 C 
ENDBRANCH  24  26
ENDBRANCH  13  24
TORSDOF 5
