REMARK VINA RESULT:    -6.751      2.113      3.765
REMARK INTER + INTRA:          -9.332
REMARK INTER:                  -8.436
REMARK INTRA:                  -0.896
REMARK UNBOUND:                -1.003
REMARK  Name = 
REMARK  6 active torsions:
REMARK  status: ('A' for Active; 'I' for Inactive)
REMARK    1  A    between atoms: C_1  and  C_2
REMARK    2  A    between atoms: C_2  and  C_4
REMARK    3  A    between atoms: C_5  and  S_6
REMARK    4  A    between atoms: S_6  and  C_8
REMARK    5  A    between atoms: C_8  and  C_9
REMARK    6  A    between atoms: C_11  and  C_12
REMARK                            x       y       z     vdW  Elec       q    Type
REMARK                         _______ _______ _______ _____ _____    ______ ____
ROOT
ATOM      1  C   UNL     1     -55.604 -42.714 -62.543  0.00  0.00    +0.000 A 
ATOM      2  C   UNL     1     -55.333 -41.548 -63.172  0.00  0.00    +0.000 A 
ATOM      3  N   UNL     1     -54.158 -41.318 -63.862  0.00  0.00    +0.000 N 
ATOM      4  C   UNL     1     -53.068 -42.208 -63.831  0.00  0.00    +0.000 A 
ATOM      5  C   UNL     1     -51.861 -41.900 -64.483  0.00  0.00    +0.000 A 
ATOM      6 BR   UNL     1     -51.625 -40.230 -65.359  0.00  0.00    +0.000 Br
ATOM      7  C   UNL     1     -50.800 -42.804 -64.499  0.00  0.00    +0.000 A 
ATOM      8  C   UNL     1     -50.937 -44.034 -63.870  0.00  0.00    +0.000 A 
ATOM      9  C   UNL     1     -52.138 -44.378 -63.232  0.00  0.00    +0.000 A 
ATOM     10 CL   UNL     1     -52.148 -45.939 -62.487  0.00  0.00    +0.000 Cl
ATOM     11  C   UNL     1     -53.214 -43.467 -63.223  0.00  0.00    +0.000 A 
ATOM     12  C   UNL     1     -54.513 -43.754 -62.562  0.00  0.00    +0.000 A 
ATOM     13  O   UNL     1     -54.685 -44.821 -61.997  0.00  0.00    +0.000 OA
ATOM     14  H   UNL     1     -53.908 -40.336 -63.989  0.00  0.00    +0.000 HD
ENDROOT
BRANCH   1  16
ATOM     15  C   UNL     1     -58.023 -43.699 -62.521  0.00  0.00    +0.000 C 
ATOM     16  C   UNL     1     -56.889 -43.011 -61.798  0.00  0.00    +0.000 C 
ATOM     17  O   UNL     1     -57.036 -42.698 -60.615  0.00  0.00    +0.000 OA
ENDBRANCH   1  16
BRANCH   2  18
ATOM     18  S   UNL     1     -56.430 -40.101 -63.010  0.00  0.00    +0.000 S 
ATOM     19  O   UNL     1     -55.524 -39.033 -62.458  0.00  0.00    +0.000 OA
BRANCH  18  20
ATOM     20  C   UNL     1     -56.668 -39.696 -64.778  0.00  0.00    +0.000 C 
BRANCH  20  21
ATOM     21  C   UNL     1     -57.028 -40.893 -65.599  0.00  0.00    +0.000 A 
ATOM     22  C   UNL     1     -56.293 -41.569 -66.608  0.00  0.00    +0.000 A 
ATOM     23  C   UNL     1     -57.108 -42.604 -67.002  0.00  0.00    +0.000 A 
ATOM     24  C   UNL     1     -57.017 -43.664 -68.022  0.00  0.00    +0.000 C 
ATOM     25  O   UNL     1     -58.241 -42.581 -66.252  0.00  0.00    +0.000 OA
ATOM     26  N   UNL     1     -58.193 -41.517 -65.368  0.00  0.00    +0.000 NA
ENDBRANCH  20  21
ENDBRANCH  18  20
ENDBRANCH   2  18
TORSDOF 4
