REMARK VINA RESULT:    -6.040     24.651     25.802
REMARK INTER + INTRA:          -8.122
REMARK INTER:                  -7.378
REMARK INTRA:                  -0.744
REMARK UNBOUND:                -0.670
REMARK  Name = 
REMARK  6 active torsions:
REMARK  status: ('A' for Active; 'I' for Inactive)
REMARK    1  A    between atoms: C_1  and  C_2
REMARK    2  A    between atoms: C_2  and  C_4
REMARK    3  A    between atoms: C_5  and  S_6
REMARK    4  A    between atoms: S_6  and  C_8
REMARK    5  A    between atoms: C_8  and  C_9
REMARK    6  A    between atoms: C_11  and  C_12
REMARK                            x       y       z     vdW  Elec       q    Type
REMARK                         _______ _______ _______ _____ _____    ______ ____
ROOT
ATOM      1  C   UNL     1     -68.890 -51.325 -55.456  0.00  0.00    +0.000 A 
ATOM      2  C   UNL     1     -68.066 -50.259 -55.570  0.00  0.00    +0.000 A 
ATOM      3  N   UNL     1     -66.884 -50.137 -54.864  0.00  0.00    +0.000 N 
ATOM      4  C   UNL     1     -66.495 -51.044 -53.865  0.00  0.00    +0.000 A 
ATOM      5  C   UNL     1     -65.294 -50.865 -53.151  0.00  0.00    +0.000 A 
ATOM      6 BR   UNL     1     -64.198 -49.344 -53.453  0.00  0.00    +0.000 Br
ATOM      7  C   UNL     1     -64.876 -51.793 -52.199  0.00  0.00    +0.000 A 
ATOM      8  C   UNL     1     -65.652 -52.922 -51.955  0.00  0.00    +0.000 A 
ATOM      9  C   UNL     1     -66.842 -53.135 -52.664  0.00  0.00    +0.000 A 
ATOM     10 CL   UNL     1     -67.687 -54.585 -52.247  0.00  0.00    +0.000 Cl
ATOM     11  C   UNL     1     -67.257 -52.205 -53.635  0.00  0.00    +0.000 A 
ATOM     12  C   UNL     1     -68.508 -52.356 -54.427  0.00  0.00    +0.000 A 
ATOM     13  O   UNL     1     -69.257 -53.298 -54.206  0.00  0.00    +0.000 OA
ATOM     14  H   UNL     1     -66.521 -49.187 -54.765  0.00  0.00    +0.000 HD
ENDROOT
BRANCH   1  16
ATOM     15  C   UNL     1     -71.480 -51.106 -55.628  0.00  0.00    +0.000 C 
ATOM     16  C   UNL     1     -70.161 -51.519 -56.244  0.00  0.00    +0.000 C 
ATOM     17  O   UNL     1     -70.158 -52.025 -57.367  0.00  0.00    +0.000 OA
ENDBRANCH   1  16
BRANCH   2  18
ATOM     18  S   UNL     1     -68.548 -48.794 -56.550  0.00  0.00    +0.000 S 
ATOM     19  O   UNL     1     -69.611 -48.142 -55.707  0.00  0.00    +0.000 OA
BRANCH  18  20
ATOM     20  C   UNL     1     -67.045 -47.774 -56.347  0.00  0.00    +0.000 C 
BRANCH  20  21
ATOM     21  C   UNL     1     -66.286 -47.586 -57.624  0.00  0.00    +0.000 A 
ATOM     22  C   UNL     1     -65.065 -46.905 -57.881  0.00  0.00    +0.000 A 
ATOM     23  C   UNL     1     -64.819 -47.121 -59.214  0.00  0.00    +0.000 A 
ATOM     24  C   UNL     1     -63.748 -46.715 -60.148  0.00  0.00    +0.000 C 
ATOM     25  O   UNL     1     -65.810 -47.891 -59.729  0.00  0.00    +0.000 OA
ATOM     26  N   UNL     1     -66.727 -48.190 -58.739  0.00  0.00    +0.000 NA
ENDBRANCH  20  21
ENDBRANCH  18  20
ENDBRANCH   2  18
TORSDOF 4
