REMARK VINA RESULT:    -5.902     13.622     16.969
REMARK INTER + INTRA:          -8.568
REMARK INTER:                  -7.550
REMARK INTRA:                  -1.018
REMARK UNBOUND:                -0.942
REMARK  Name = 
REMARK  8 active torsions:
REMARK  status: ('A' for Active; 'I' for Inactive)
REMARK    1  A    between atoms: C_1  and  C_2
REMARK    2  A    between atoms: C_4  and  C_5
REMARK    3  A    between atoms: C_5  and  S_6
REMARK    4  A    between atoms: S_6  and  C_8
REMARK    5  A    between atoms: C_20  and  C_21
REMARK    6  A    between atoms: C_21  and  C_23
REMARK    7  A    between atoms: C_23  and  C_24
REMARK    8  A    between atoms: C_23  and  C_25
REMARK                            x       y       z     vdW  Elec       q    Type
REMARK                         _______ _______ _______ _____ _____    ______ ____
ROOT
ATOM      1  C   UNL     1     -67.398 -49.612 -54.417  0.00  0.00    +0.000 A 
ATOM      2  N   UNL     1     -68.017 -50.647 -55.113  0.00  0.00    +0.000 N 
ATOM      3  C   UNL     1     -68.035 -51.967 -54.616  0.00  0.00    +0.000 A 
ATOM      4  C   UNL     1     -68.956 -52.928 -55.079  0.00  0.00    +0.000 A 
ATOM      5 CL   UNL     1     -70.221 -52.485 -56.169  0.00  0.00    +0.000 Cl
ATOM      6  C   UNL     1     -68.888 -54.253 -54.650  0.00  0.00    +0.000 A 
ATOM      7  C   UNL     1     -67.895 -54.636 -53.745  0.00  0.00    +0.000 A 
ATOM      8  C   UNL     1     -66.980 -53.692 -53.262  0.00  0.00    +0.000 A 
ATOM      9 CL   UNL     1     -65.844 -54.269 -52.099  0.00  0.00    +0.000 Cl
ATOM     10  C   UNL     1     -67.044 -52.363 -53.708  0.00  0.00    +0.000 A 
ATOM     11  C   UNL     1     -66.080 -51.299 -53.327  0.00  0.00    +0.000 A 
ATOM     12  O   UNL     1     -64.935 -51.610 -53.022  0.00  0.00    +0.000 OA
ATOM     13  C   UNL     1     -66.510 -49.839 -53.409  0.00  0.00    +0.000 A 
ATOM     14  H   UNL     1     -68.864 -50.354 -55.618  0.00  0.00    +0.000 HD
ENDROOT
BRANCH   1  15
ATOM     15  S   UNL     1     -68.122 -47.983 -54.868  0.00  0.00    +0.000 S 
ATOM     16  O   UNL     1     -69.183 -47.764 -53.825  0.00  0.00    +0.000 OA
BRANCH  15  17
ATOM     17  C   UNL     1     -68.976 -48.342 -56.456  0.00  0.00    +0.000 C 
BRANCH  17  21
ATOM     18  C   UNL     1     -65.395 -47.839 -60.152  0.00  0.00    +0.000 C 
ATOM     19  C   UNL     1     -66.555 -47.916 -59.238  0.00  0.00    +0.000 A 
ATOM     20  C   UNL     1     -66.775 -48.435 -57.983  0.00  0.00    +0.000 A 
ATOM     21  C   UNL     1     -68.128 -48.112 -57.682  0.00  0.00    +0.000 A 
ATOM     22  N   UNL     1     -68.686 -47.465 -58.719  0.00  0.00    +0.000 NA
ATOM     23  O   UNL     1     -67.702 -47.341 -59.681  0.00  0.00    +0.000 OA
ENDBRANCH  17  21
ENDBRANCH  15  17
ENDBRANCH   1  15
BRANCH  13  24
ATOM     24  C   UNL     1     -65.893 -48.937 -52.359  0.00  0.00    +0.000 C 
ATOM     25  O   UNL     1     -66.306 -48.979 -51.193  0.00  0.00    +0.000 OA
BRANCH  24  26
ATOM     26  C   UNL     1     -64.880 -47.863 -52.709  0.00  0.00    +0.000 C 
ATOM     27  C   UNL     1     -63.935 -47.651 -51.541  0.00  0.00    +0.000 C 
ATOM     28  C   UNL     1     -64.169 -48.167 -54.022  0.00  0.00    +0.000 C 
ENDBRANCH  24  26
ENDBRANCH  13  24
TORSDOF 5
