REMARK VINA RESULT:    -6.745     12.180     15.401
REMARK INTER + INTRA:          -9.352
REMARK INTER:                  -8.874
REMARK INTRA:                  -0.478
REMARK UNBOUND:                -0.635
REMARK  Name = 
REMARK  6 active torsions:
REMARK  status: ('A' for Active; 'I' for Inactive)
REMARK    1  A    between atoms: C_1  and  C_2
REMARK    2  A    between atoms: C_4  and  C_5
REMARK    3  A    between atoms: C_5  and  S_6
REMARK    4  A    between atoms: S_6  and  C_8
REMARK    5  A    between atoms: C_20  and  C_21
REMARK    6  A    between atoms: C_21  and  C_23
REMARK                            x       y       z     vdW  Elec       q    Type
REMARK                         _______ _______ _______ _____ _____    ______ ____
ROOT
ATOM      1  C   UNL     1     -53.529 -42.195 -78.376  0.00  0.00    +0.000 A 
ATOM      2  N   UNL     1     -54.707 -42.935 -78.594  0.00  0.00    +0.000 N 
ATOM      3  C   UNL     1     -55.732 -42.969 -77.610  0.00  0.00    +0.000 A 
ATOM      4  C   UNL     1     -57.059 -43.342 -77.895  0.00  0.00    +0.000 A 
ATOM      5 BR   UNL     1     -57.624 -43.660 -79.678  0.00  0.00    +0.000 Br
ATOM      6  C   UNL     1     -58.013 -43.468 -76.876  0.00  0.00    +0.000 A 
ATOM      7  C   UNL     1     -57.651 -43.193 -75.552  0.00  0.00    +0.000 A 
ATOM      8  C   UNL     1     -56.343 -42.819 -75.244  0.00  0.00    +0.000 A 
ATOM      9 CL   UNL     1     -56.017 -42.432 -73.593  0.00  0.00    +0.000 Cl
ATOM     10  C   UNL     1     -55.389 -42.731 -76.269  0.00  0.00    +0.000 A 
ATOM     11  C   UNL     1     -53.964 -42.428 -76.030  0.00  0.00    +0.000 A 
ATOM     12  O   UNL     1     -53.403 -42.750 -74.990  0.00  0.00    +0.000 OA
ATOM     13  C   UNL     1     -53.188 -41.778 -77.137  0.00  0.00    +0.000 A 
ATOM     14  H   UNL     1     -55.059 -42.833 -79.556  0.00  0.00    +0.000 HD
ENDROOT
BRANCH   1  15
ATOM     15  S   UNL     1     -52.836 -41.521 -79.909  0.00  0.00    +0.000 S 
ATOM     16  O   UNL     1     -53.936 -41.697 -80.920  0.00  0.00    +0.000 OA
BRANCH  15  17
ATOM     17  C   UNL     1     -51.436 -42.548 -80.445  0.00  0.00    +0.000 C 
BRANCH  17  21
ATOM     18  C   UNL     1     -50.075 -43.028 -85.358  0.00  0.00    +0.000 C 
ATOM     19  C   UNL     1     -50.548 -43.086 -83.962  0.00  0.00    +0.000 A 
ATOM     20  C   UNL     1     -50.431 -42.264 -82.867  0.00  0.00    +0.000 A 
ATOM     21  C   UNL     1     -51.214 -42.887 -81.870  0.00  0.00    +0.000 A 
ATOM     22  N   UNL     1     -51.713 -44.051 -82.321  0.00  0.00    +0.000 NA
ATOM     23  O   UNL     1     -51.295 -44.169 -83.630  0.00  0.00    +0.000 OA
ENDBRANCH  17  21
ENDBRANCH  15  17
ENDBRANCH   1  15
BRANCH  13  24
ATOM     24  C   UNL     1     -52.306 -40.668 -76.677  0.00  0.00    +0.000 C 
ATOM     25  O   UNL     1     -52.667 -39.508 -76.776  0.00  0.00    +0.000 OA
BRANCH  24  26
ATOM     26  C   UNL     1     -51.009 -41.000 -76.057  0.00  0.00    +0.000 C 
ATOM     27  C   UNL     1     -50.123 -39.890 -75.553  0.00  0.00    +0.000 C 
ATOM     28  C   UNL     1     -49.706 -40.685 -76.752  0.00  0.00    +0.000 C 
ENDBRANCH  24  26
ENDBRANCH  13  24
TORSDOF 5
