REMARK VINA RESULT:    -6.297     12.305     13.823
REMARK INTER + INTRA:          -9.265
REMARK INTER:                  -8.208
REMARK INTRA:                  -1.057
REMARK UNBOUND:                -1.127
REMARK  Name = 
REMARK  8 active torsions:
REMARK  status: ('A' for Active; 'I' for Inactive)
REMARK    1  A    between atoms: C_1  and  C_2
REMARK    2  A    between atoms: C_4  and  C_5
REMARK    3  A    between atoms: C_5  and  S_6
REMARK    4  A    between atoms: S_6  and  C_8
REMARK    5  A    between atoms: C_20  and  C_21
REMARK    6  A    between atoms: C_21  and  C_23
REMARK    7  A    between atoms: C_23  and  C_24
REMARK    8  A    between atoms: C_23  and  C_25
REMARK                            x       y       z     vdW  Elec       q    Type
REMARK                         _______ _______ _______ _____ _____    ______ ____
ROOT
ATOM      1  C   UNL     1     -55.631 -42.575 -76.626  0.00  0.00    +0.000 A 
ATOM      2  N   UNL     1     -54.315 -42.944 -76.363  0.00  0.00    +0.000 N 
ATOM      3  C   UNL     1     -53.289 -41.986 -76.249  0.00  0.00    +0.000 A 
ATOM      4  C   UNL     1     -52.076 -42.263 -75.590  0.00  0.00    +0.000 A 
ATOM      5 BR   UNL     1     -51.817 -43.901 -74.670  0.00  0.00    +0.000 Br
ATOM      6  C   UNL     1     -51.043 -41.321 -75.560  0.00  0.00    +0.000 A 
ATOM      7  C   UNL     1     -51.209 -40.088 -76.182  0.00  0.00    +0.000 A 
ATOM      8  C   UNL     1     -52.417 -39.788 -76.840  0.00  0.00    +0.000 A 
ATOM      9 CL   UNL     1     -52.532 -38.202 -77.512  0.00  0.00    +0.000 Cl
ATOM     10  C   UNL     1     -53.456 -40.741 -76.877  0.00  0.00    +0.000 A 
ATOM     11  C   UNL     1     -54.753 -40.535 -77.572  0.00  0.00    +0.000 A 
ATOM     12  O   UNL     1     -54.835 -39.728 -78.493  0.00  0.00    +0.000 OA
ATOM     13  C   UNL     1     -55.957 -41.359 -77.127  0.00  0.00    +0.000 A 
ATOM     14  H   UNL     1     -54.227 -43.774 -75.762  0.00  0.00    +0.000 HD
ENDROOT
BRANCH   1  15
ATOM     15  S   UNL     1     -56.816 -43.832 -76.014  0.00  0.00    +0.000 S 
ATOM     16  O   UNL     1     -57.082 -43.412 -74.594  0.00  0.00    +0.000 OA
BRANCH  15  17
ATOM     17  C   UNL     1     -55.826 -45.364 -75.988  0.00  0.00    +0.000 C 
BRANCH  17  21
ATOM     18  C   UNL     1     -55.765 -46.993 -80.902  0.00  0.00    +0.000 C 
ATOM     19  C   UNL     1     -55.688 -46.707 -79.453  0.00  0.00    +0.000 A 
ATOM     20  C   UNL     1     -55.968 -45.618 -78.658  0.00  0.00    +0.000 A 
ATOM     21  C   UNL     1     -55.693 -46.049 -77.328  0.00  0.00    +0.000 A 
ATOM     22  N   UNL     1     -55.254 -47.320 -77.343  0.00  0.00    +0.000 NA
ATOM     23  O   UNL     1     -55.257 -47.725 -78.664  0.00  0.00    +0.000 OA
ENDBRANCH  17  21
ENDBRANCH  15  17
ENDBRANCH   1  15
BRANCH  13  24
ATOM     24  C   UNL     1     -57.315 -40.708 -77.264  0.00  0.00    +0.000 C 
ATOM     25  O   UNL     1     -57.712 -39.918 -76.409  0.00  0.00    +0.000 OA
BRANCH  24  26
ATOM     26  C   UNL     1     -58.233 -41.075 -78.431  0.00  0.00    +0.000 C 
ATOM     27  C   UNL     1     -57.518 -41.941 -79.464  0.00  0.00    +0.000 C 
ATOM     28  C   UNL     1     -59.514 -41.766 -77.955  0.00  0.00    +0.000 C 
ENDBRANCH  24  26
ENDBRANCH  13  24
TORSDOF 5
