=
 OpenBabel09162515093D

 28 31  0  0  1  0  0  0  0  0999 V2000
  -55.5220  -42.0400  -63.1010 C   0  0  2  0  0  3  0  0  0  0  0  0
  -54.7270  -43.2030  -63.1080 N   0  0  0  0  0  0  0  0  0  0  0  0
  -53.3420  -43.1300  -63.4220 C   0  0  0  0  0  0  0  0  0  0  0  0
  -52.4240  -44.1400  -63.0790 C   0  0  0  0  0  0  0  0  0  0  0  0
  -52.9430  -45.6110  -62.0000 Br  0  0  0  0  0  0  0  0  0  0  0  0
  -51.0890  -44.0800  -63.5030 C   0  0  0  0  0  3  0  0  0  0  0  0
  -50.6500  -42.9860  -64.2580 C   0  0  0  0  0  3  0  0  0  0  0  0
  -51.5420  -41.9720  -64.6080 C   0  0  0  0  0  0  0  0  0  0  0  0
  -50.8860  -40.6330  -65.4780 Cl  0  0  0  0  0  0  0  0  0  0  0  0
  -52.8840  -42.0620  -64.2080 C   0  0  0  0  0  0  0  0  0  0  0  0
  -53.9160  -41.0840  -64.6030 C   0  0  0  0  0  0  0  0  0  0  0  0
  -53.8580  -40.4780  -65.6650 O   0  0  0  0  0  0  0  0  0  0  0  0
  -55.0980  -40.9030  -63.6960 C   0  0  2  0  0  3  0  0  0  0  0  0
  -54.9410  -43.8260  -62.3180 H   0  0  0  0  0  0  0  0  0  0  0  0
  -56.8610  -42.1200  -61.8820 S   0  0  2  0  0  0  0  0  0  0  0  0
  -56.5760  -43.3730  -61.1010 O   0  0  0  0  0  0  0  0  0  0  0  0
  -58.4460  -42.3610  -62.7380 C   0  0  0  0  0  2  0  0  0  0  0  0
  -58.2860  -43.0440  -67.8100 C   0  0  0  0  0  1  0  0  0  0  0  0
  -58.4960  -42.7160  -66.3870 C   0  0  0  0  0  0  0  0  0  0  0  0
  -57.9500  -43.1540  -65.2040 C   0  0  0  0  0  3  0  0  0  0  0  0
  -58.5490  -42.3420  -64.2150 C   0  0  0  0  0  0  0  0  0  0  0  0
  -59.4530  -41.5140  -64.7690 N   0  0  0  0  0  0  0  0  0  0  0  0
  -59.4140  -41.7520  -66.1270 O   0  0  0  0  0  0  0  0  0  0  0  0
  -55.4780  -39.4780  -63.4840 C   0  0  0  0  0  0  0  0  0  0  0  0
  -56.6330  -39.1170  -63.6280 O   0  0  0  0  0  0  0  0  0  0  0  0
  -54.4420  -38.5220  -63.0500 C   0  0  0  0  0  3  0  0  0  0  0  0
  -54.8260  -37.0940  -62.7600 C   0  0  0  0  0  2  0  0  0  0  0  0
  -53.9780  -37.4060  -63.9550 C   0  0  0  0  0  2  0  0  0  0  0  0
  1 15  1  1  0  0  0
  2  1  1  0  0  0  0
  2 14  1  0  0  0  0
  3  2  1  0  0  0  0
  3  4  1  0  0  0  0
  4  5  1  0  0  0  0
  6  4  2  0  0  0  0
  7  6  1  0  0  0  0
  8  7  2  0  0  0  0
  8 10  1  0  0  0  0
  9  8  1  0  0  0  0
 10  3  2  0  0  0  0
 11 10  1  0  0  0  0
 11 13  1  0  0  0  0
 12 11  2  0  0  0  0
 13 24  1  1  0  0  0
 13  1  1  0  0  0  0
 15 16  2  1  0  0  0
 17 15  1  0  0  0  0
 18 19  1  0  0  0  0
 19 23  1  0  0  0  0
 19 20  2  0  0  0  0
 20 21  1  0  0  0  0
 21 17  1  0  0  0  0
 22 21  2  0  0  0  0
 23 22  1  0  0  0  0
 24 26  1  0  0  0  0
 25 24  2  0  0  0  0
 26 27  1  0  0  0  0
 28 26  1  0  0  0  0
 28 27  1  0  0  0  0
M  END
>  <MODEL>
1

>  <REMARK>
 VINA RESULT:    -7.095      0.000      0.000
 INTER + INTRA:         -10.070
 INTER:                  -9.169
 INTRA:                  -0.901
 UNBOUND:                -0.901
  Name = 
  6 active torsions:
  status: ('A' for Active; 'I' for Inactive)
    1  A    between atoms: C_1  and  C_2
    2  A    between atoms: C_4  and  C_5
    3  A    between atoms: C_5  and  S_6
    4  A    between atoms: S_6  and  C_8
    5  A    between atoms: C_20  and  C_21
    6  A    between atoms: C_21  and  C_23
                            x       y       z     vdW  Elec       q    Type
                         _______ _______ _______ _____ _____    ______ ____

>  <TORSDO>
F 5

$$$$
