REMARK VINA RESULT:    -5.941      3.833      5.805
REMARK INTER + INTRA:          -8.579
REMARK INTER:                  -7.634
REMARK INTRA:                  -0.945
REMARK UNBOUND:                -0.901
REMARK  Name = 
REMARK  6 active torsions:
REMARK  status: ('A' for Active; 'I' for Inactive)
REMARK    1  A    between atoms: C_1  and  C_2
REMARK    2  A    between atoms: C_4  and  C_5
REMARK    3  A    between atoms: C_5  and  S_6
REMARK    4  A    between atoms: S_6  and  C_8
REMARK    5  A    between atoms: C_20  and  C_21
REMARK    6  A    between atoms: C_21  and  C_23
REMARK                            x       y       z     vdW  Elec       q    Type
REMARK                         _______ _______ _______ _____ _____    ______ ____
ROOT
ATOM      1  C   UNL     1     -57.668 -41.102 -62.612  0.00  0.00    +0.000 A 
ATOM      2  N   UNL     1     -57.184 -39.835 -62.232  0.00  0.00    +0.000 N 
ATOM      3  C   UNL     1     -56.134 -39.214 -62.961  0.00  0.00    +0.000 A 
ATOM      4  C   UNL     1     -55.869 -37.833 -62.899  0.00  0.00    +0.000 A 
ATOM      5 BR   UNL     1     -57.024 -36.655 -61.962  0.00  0.00    +0.000 Br
ATOM      6  C   UNL     1     -54.756 -37.278 -63.546  0.00  0.00    +0.000 A 
ATOM      7  C   UNL     1     -53.906 -38.103 -64.292  0.00  0.00    +0.000 A 
ATOM      8  C   UNL     1     -54.150 -39.475 -64.370  0.00  0.00    +0.000 A 
ATOM      9 CL   UNL     1     -53.085 -40.393 -65.372  0.00  0.00    +0.000 Cl
ATOM     10  C   UNL     1     -55.246 -40.023 -63.687  0.00  0.00    +0.000 A 
ATOM     11  C   UNL     1     -55.534 -41.470 -63.641  0.00  0.00    +0.000 A 
ATOM     12  O   UNL     1     -54.641 -42.306 -63.697  0.00  0.00    +0.000 OA
ATOM     13  C   UNL     1     -56.957 -41.898 -63.442  0.00  0.00    +0.000 A 
ATOM     14  H   UNL     1     -57.943 -39.192 -61.968  0.00  0.00    +0.000 HD
ENDROOT
BRANCH   1  15
ATOM     15  S   UNL     1     -59.433 -41.309 -62.256  0.00  0.00    +0.000 S 
ATOM     16  O   UNL     1     -60.123 -40.702 -63.446  0.00  0.00    +0.000 OA
BRANCH  15  17
ATOM     17  C   UNL     1     -59.879 -40.315 -60.802  0.00  0.00    +0.000 C 
BRANCH  17  21
ATOM     18  C   UNL     1     -62.682 -36.036 -61.026  0.00  0.00    +0.000 C 
ATOM     19  C   UNL     1     -62.051 -37.369 -61.025  0.00  0.00    +0.000 A 
ATOM     20  C   UNL     1     -60.774 -37.834 -60.818  0.00  0.00    +0.000 A 
ATOM     21  C   UNL     1     -60.896 -39.241 -60.871  0.00  0.00    +0.000 A 
ATOM     22  N   UNL     1     -62.160 -39.594 -61.165  0.00  0.00    +0.000 NA
ATOM     23  O   UNL     1     -62.878 -38.419 -61.258  0.00  0.00    +0.000 OA
ENDBRANCH  17  21
ENDBRANCH  15  17
ENDBRANCH   1  15
BRANCH  13  24
ATOM     24  C   UNL     1     -57.375 -43.020 -64.329  0.00  0.00    +0.000 C 
ATOM     25  O   UNL     1     -57.398 -44.165 -63.911  0.00  0.00    +0.000 OA
BRANCH  24  26
ATOM     26  C   UNL     1     -57.807 -42.716 -65.706  0.00  0.00    +0.000 C 
ATOM     27  C   UNL     1     -57.955 -43.837 -66.702  0.00  0.00    +0.000 C 
ATOM     28  C   UNL     1     -56.853 -42.837 -66.871  0.00  0.00    +0.000 C 
ENDBRANCH  24  26
ENDBRANCH  13  24
TORSDOF 5
