REMARK VINA RESULT:    -5.421     25.947     27.762
REMARK INTER + INTRA:          -7.336
REMARK INTER:                  -6.276
REMARK INTRA:                  -1.060
REMARK UNBOUND:                -0.647
REMARK  Name = 
REMARK  6 active torsions:
REMARK  status: ('A' for Active; 'I' for Inactive)
REMARK    1  A    between atoms: C_1  and  C_2
REMARK    2  A    between atoms: C_2  and  C_4
REMARK    3  A    between atoms: C_5  and  S_6
REMARK    4  A    between atoms: S_6  and  C_8
REMARK    5  A    between atoms: C_8  and  C_9
REMARK    6  A    between atoms: C_11  and  C_12
REMARK                            x       y       z     vdW  Elec       q    Type
REMARK                         _______ _______ _______ _____ _____    ______ ____
ROOT
ATOM      1  C   UNL     1     -66.371 -51.881 -53.165  0.00  0.00    +0.000 A 
ATOM      2  C   UNL     1     -67.196 -51.861 -54.260  0.00  0.00    +0.000 A 
ATOM      3  N   UNL     1     -67.180 -50.814 -55.144  0.00  0.00    +0.000 N 
ATOM      4  C   UNL     1     -66.474 -49.623 -54.938  0.00  0.00    +0.000 A 
ATOM      5  C   UNL     1     -66.672 -48.518 -55.792  0.00  0.00    +0.000 A 
ATOM      6 BR   UNL     1     -67.929 -48.583 -57.218  0.00  0.00    +0.000 Br
ATOM      7  C   UNL     1     -65.953 -47.342 -55.609  0.00  0.00    +0.000 A 
ATOM      8  C   UNL     1     -65.043 -47.253 -54.559  0.00  0.00    +0.000 A 
ATOM      9  C   UNL     1     -64.852 -48.334 -53.689  0.00  0.00    +0.000 A 
ATOM     10 CL   UNL     1     -63.727 -48.070 -52.404  0.00  0.00    +0.000 Cl
ATOM     11  C   UNL     1     -65.570 -49.527 -53.887  0.00  0.00    +0.000 A 
ATOM     12  C   UNL     1     -65.386 -50.742 -53.069  0.00  0.00    +0.000 A 
ATOM     13  O   UNL     1     -64.402 -50.832 -52.343  0.00  0.00    +0.000 OA
ATOM     14  H   UNL     1     -67.844 -50.846 -55.919  0.00  0.00    +0.000 HD
ENDROOT
BRANCH   1  16
ATOM     15  C   UNL     1     -65.682 -54.256 -52.320  0.00  0.00    +0.000 C 
ATOM     16  C   UNL     1     -66.343 -52.902 -52.058  0.00  0.00    +0.000 C 
ATOM     17  O   UNL     1     -66.830 -52.659 -50.976  0.00  0.00    +0.000 OA
ENDBRANCH   1  16
BRANCH   2  18
ATOM     18  S   UNL     1     -68.526 -53.093 -54.586  0.00  0.00    +0.000 S 
ATOM     19  O   UNL     1     -69.425 -52.962 -53.374  0.00  0.00    +0.000 OA
BRANCH  18  20
ATOM     20  C   UNL     1     -69.454 -52.265 -55.950  0.00  0.00    +0.000 C 
BRANCH  20  21
ATOM     21  C   UNL     1     -70.632 -51.443 -55.535  0.00  0.00    +0.000 A 
ATOM     22  C   UNL     1     -72.016 -51.742 -55.507  0.00  0.00    +0.000 A 
ATOM     23  C   UNL     1     -72.597 -50.616 -54.966  0.00  0.00    +0.000 A 
ATOM     24  C   UNL     1     -73.976 -50.238 -54.631  0.00  0.00    +0.000 C 
ATOM     25  O   UNL     1     -71.635 -49.698 -54.695  0.00  0.00    +0.000 OA
ATOM     26  N   UNL     1     -70.402 -50.214 -55.039  0.00  0.00    +0.000 NA
ENDBRANCH  20  21
ENDBRANCH  18  20
ENDBRANCH   2  18
TORSDOF 4
