REMARK VINA RESULT:    -6.345      3.868      7.472
REMARK INTER + INTRA:          -9.111
REMARK INTER:                  -8.586
REMARK INTRA:                  -0.525
REMARK UNBOUND:                -0.911
REMARK  Name = 
REMARK  6 active torsions:
REMARK  status: ('A' for Active; 'I' for Inactive)
REMARK    1  A    between atoms: C_1  and  C_2
REMARK    2  A    between atoms: C_4  and  C_5
REMARK    3  A    between atoms: C_5  and  S_6
REMARK    4  A    between atoms: S_6  and  C_8
REMARK    5  A    between atoms: C_20  and  C_21
REMARK    6  A    between atoms: C_21  and  C_23
REMARK                            x       y       z     vdW  Elec       q    Type
REMARK                         _______ _______ _______ _____ _____    ______ ____
ROOT
ATOM      1  C   UNL     1     -53.579 -42.376 -78.371  0.00  0.00    +0.000 A 
ATOM      2  N   UNL     1     -54.782 -43.102 -78.478  0.00  0.00    +0.000 N 
ATOM      3  C   UNL     1     -55.739 -43.075 -77.428  0.00  0.00    +0.000 A 
ATOM      4  C   UNL     1     -57.088 -43.434 -77.609  0.00  0.00    +0.000 A 
ATOM      5 BR   UNL     1     -57.777 -43.813 -79.335  0.00  0.00    +0.000 Br
ATOM      6  C   UNL     1     -57.973 -43.499 -76.524  0.00  0.00    +0.000 A 
ATOM      7  C   UNL     1     -57.519 -43.177 -75.240  0.00  0.00    +0.000 A 
ATOM      8  C   UNL     1     -56.187 -42.817 -75.036  0.00  0.00    +0.000 A 
ATOM      9 CL   UNL     1     -55.745 -42.368 -73.428  0.00  0.00    +0.000 Cl
ATOM     10  C   UNL     1     -55.303 -42.790 -76.125  0.00  0.00    +0.000 A 
ATOM     11  C   UNL     1     -53.861 -42.505 -75.993  0.00  0.00    +0.000 A 
ATOM     12  O   UNL     1     -53.236 -42.795 -74.981  0.00  0.00    +0.000 OA
ATOM     13  C   UNL     1     -53.150 -41.916 -77.175  0.00  0.00    +0.000 A 
ATOM     14  H   UNL     1     -55.196 -43.032 -79.418  0.00  0.00    +0.000 HD
ENDROOT
BRANCH   1  15
ATOM     15  S   UNL     1     -52.980 -41.780 -79.974  0.00  0.00    +0.000 S 
ATOM     16  O   UNL     1     -53.319 -40.314 -79.973  0.00  0.00    +0.000 OA
BRANCH  15  17
ATOM     17  C   UNL     1     -53.938 -42.558 -81.307  0.00  0.00    +0.000 C 
BRANCH  17  21
ATOM     18  C   UNL     1     -57.166 -39.660 -84.028  0.00  0.00    +0.000 C 
ATOM     19  C   UNL     1     -56.096 -40.457 -83.400  0.00  0.00    +0.000 A 
ATOM     20  C   UNL     1     -55.958 -41.118 -82.202  0.00  0.00    +0.000 A 
ATOM     21  C   UNL     1     -54.702 -41.758 -82.292  0.00  0.00    +0.000 A 
ATOM     22  N   UNL     1     -54.093 -41.441 -83.448  0.00  0.00    +0.000 NA
ATOM     23  O   UNL     1     -54.969 -40.629 -84.137  0.00  0.00    +0.000 OA
ENDBRANCH  17  21
ENDBRANCH  15  17
ENDBRANCH   1  15
BRANCH  13  24
ATOM     24  C   UNL     1     -52.220 -40.805 -76.823  0.00  0.00    +0.000 C 
ATOM     25  O   UNL     1     -52.646 -39.681 -76.623  0.00  0.00    +0.000 OA
BRANCH  24  26
ATOM     26  C   UNL     1     -50.783 -41.101 -76.674  0.00  0.00    +0.000 C 
ATOM     27  C   UNL     1     -50.213 -41.338 -75.299  0.00  0.00    +0.000 C 
ATOM     28  C   UNL     1     -49.837 -40.099 -76.054  0.00  0.00    +0.000 C 
ENDBRANCH  24  26
ENDBRANCH  13  24
TORSDOF 5
