REMARK VINA RESULT:    -5.463     14.630     17.679
REMARK INTER + INTRA:          -7.711
REMARK INTER:                  -7.097
REMARK INTRA:                  -0.614
REMARK UNBOUND:                -0.971
REMARK  Name = 
REMARK  6 active torsions:
REMARK  status: ('A' for Active; 'I' for Inactive)
REMARK    1  A    between atoms: C_1  and  C_2
REMARK    2  A    between atoms: C_2  and  C_4
REMARK    3  A    between atoms: C_5  and  S_6
REMARK    4  A    between atoms: S_6  and  C_8
REMARK    5  A    between atoms: C_8  and  C_9
REMARK    6  A    between atoms: C_11  and  C_12
REMARK                            x       y       z     vdW  Elec       q    Type
REMARK                         _______ _______ _______ _____ _____    ______ ____
ROOT
ATOM      1  C   UNL     1     -65.884 -49.560 -53.043  0.00  0.00    +0.000 A 
ATOM      2  C   UNL     1     -66.769 -49.137 -53.973  0.00  0.00    +0.000 A 
ATOM      3  N   UNL     1     -67.657 -49.978 -54.615  0.00  0.00    +0.000 N 
ATOM      4  C   UNL     1     -67.650 -51.374 -54.441  0.00  0.00    +0.000 A 
ATOM      5  C   UNL     1     -68.595 -52.184 -55.099  0.00  0.00    +0.000 A 
ATOM      6 BR   UNL     1     -69.871 -51.433 -56.289  0.00  0.00    +0.000 Br
ATOM      7  C   UNL     1     -68.626 -53.561 -54.892  0.00  0.00    +0.000 A 
ATOM      8  C   UNL     1     -67.712 -54.144 -54.020  0.00  0.00    +0.000 A 
ATOM      9  C   UNL     1     -66.780 -53.357 -53.334  0.00  0.00    +0.000 A 
ATOM     10 CL   UNL     1     -65.710 -54.226 -52.289  0.00  0.00    +0.000 Cl
ATOM     11  C   UNL     1     -66.764 -51.960 -53.522  0.00  0.00    +0.000 A 
ATOM     12  C   UNL     1     -65.825 -51.047 -52.811  0.00  0.00    +0.000 A 
ATOM     13  O   UNL     1     -64.972 -51.507 -52.062  0.00  0.00    +0.000 OA
ATOM     14  H   UNL     1     -68.014 -49.646 -55.511  0.00  0.00    +0.000 HD
ENDROOT
BRANCH   1  16
ATOM     15  C   UNL     1     -65.522 -47.796 -51.172  0.00  0.00    +0.000 C 
ATOM     16  C   UNL     1     -64.953 -48.659 -52.276  0.00  0.00    +0.000 C 
ATOM     17  O   UNL     1     -63.754 -48.584 -52.544  0.00  0.00    +0.000 OA
ENDBRANCH   1  16
BRANCH   2  18
ATOM     18  S   UNL     1     -66.753 -47.419 -54.585  0.00  0.00    +0.000 S 
ATOM     19  O   UNL     1     -65.362 -47.258 -55.137  0.00  0.00    +0.000 OA
BRANCH  18  20
ATOM     20  C   UNL     1     -67.852 -47.608 -56.034  0.00  0.00    +0.000 C 
BRANCH  20  21
ATOM     21  C   UNL     1     -67.112 -47.415 -57.316  0.00  0.00    +0.000 A 
ATOM     22  C   UNL     1     -66.533 -48.389 -58.172  0.00  0.00    +0.000 A 
ATOM     23  C   UNL     1     -66.044 -47.670 -59.234  0.00  0.00    +0.000 A 
ATOM     24  C   UNL     1     -65.330 -48.017 -60.478  0.00  0.00    +0.000 C 
ATOM     25  O   UNL     1     -66.315 -46.352 -59.039  0.00  0.00    +0.000 OA
ATOM     26  N   UNL     1     -66.989 -46.189 -57.841  0.00  0.00    +0.000 NA
ENDBRANCH  20  21
ENDBRANCH  18  20
ENDBRANCH   2  18
TORSDOF 4
