REMARK VINA RESULT:    -6.387     12.520     13.632
REMARK INTER + INTRA:          -9.127
REMARK INTER:                  -8.520
REMARK INTRA:                  -0.607
REMARK UNBOUND:                -0.874
REMARK  Name = 
REMARK  8 active torsions:
REMARK  status: ('A' for Active; 'I' for Inactive)
REMARK    1  A    between atoms: C_1  and  C_2
REMARK    2  A    between atoms: C_4  and  C_5
REMARK    3  A    between atoms: C_5  and  S_6
REMARK    4  A    between atoms: S_6  and  C_8
REMARK    5  A    between atoms: C_20  and  C_21
REMARK    6  A    between atoms: C_21  and  C_23
REMARK    7  A    between atoms: C_23  and  C_24
REMARK    8  A    between atoms: C_23  and  C_25
REMARK                            x       y       z     vdW  Elec       q    Type
REMARK                         _______ _______ _______ _____ _____    ______ ____
ROOT
ATOM      1  C   UNL     1     -56.065 -41.528 -63.514  0.00  0.00    +0.000 A 
ATOM      2  N   UNL     1     -55.187 -40.783 -64.294  0.00  0.00    +0.000 N 
ATOM      3  C   UNL     1     -54.863 -39.450 -63.974  0.00  0.00    +0.000 A 
ATOM      4  C   UNL     1     -53.704 -38.822 -64.467  0.00  0.00    +0.000 A 
ATOM      5 BR   UNL     1     -52.417 -39.793 -65.466  0.00  0.00    +0.000 Br
ATOM      6  C   UNL     1     -53.447 -37.474 -64.198  0.00  0.00    +0.000 A 
ATOM      7  C   UNL     1     -54.342 -36.737 -63.428  0.00  0.00    +0.000 A 
ATOM      8  C   UNL     1     -55.503 -37.348 -62.920  0.00  0.00    +0.000 A 
ATOM      9 CL   UNL     1     -56.500 -36.353 -61.922  0.00  0.00    +0.000 Cl
ATOM     10  C   UNL     1     -55.766 -38.705 -63.198  0.00  0.00    +0.000 A 
ATOM     11  C   UNL     1     -56.977 -39.432 -62.737  0.00  0.00    +0.000 A 
ATOM     12  O   UNL     1     -58.001 -38.812 -62.466  0.00  0.00    +0.000 OA
ATOM     13  C   UNL     1     -56.918 -40.953 -62.632  0.00  0.00    +0.000 A 
ATOM     14  H   UNL     1     -54.435 -41.340 -64.723  0.00  0.00    +0.000 HD
ENDROOT
BRANCH   1  15
ATOM     15  S   UNL     1     -55.754 -43.326 -63.682  0.00  0.00    +0.000 S 
ATOM     16  O   UNL     1     -57.009 -43.960 -63.145  0.00  0.00    +0.000 OA
BRANCH  15  17
ATOM     17  C   UNL     1     -54.400 -43.630 -62.497  0.00  0.00    +0.000 C 
BRANCH  17  21
ATOM     18  C   UNL     1     -49.776 -45.124 -64.283  0.00  0.00    +0.000 C 
ATOM     19  C   UNL     1     -51.064 -44.520 -63.875  0.00  0.00    +0.000 A 
ATOM     20  C   UNL     1     -52.179 -44.965 -63.203  0.00  0.00    +0.000 A 
ATOM     21  C   UNL     1     -53.044 -43.835 -63.131  0.00  0.00    +0.000 A 
ATOM     22  N   UNL     1     -52.475 -42.786 -63.749  0.00  0.00    +0.000 NA
ATOM     23  O   UNL     1     -51.244 -43.215 -64.206  0.00  0.00    +0.000 OA
ENDBRANCH  17  21
ENDBRANCH  15  17
ENDBRANCH   1  15
BRANCH  13  24
ATOM     24  C   UNL     1     -57.769 -41.594 -61.559  0.00  0.00    +0.000 C 
ATOM     25  O   UNL     1     -57.252 -41.998 -60.518  0.00  0.00    +0.000 OA
BRANCH  24  26
ATOM     26  C   UNL     1     -59.267 -41.806 -61.784  0.00  0.00    +0.000 C 
ATOM     27  C   UNL     1     -59.629 -41.758 -63.266  0.00  0.00    +0.000 C 
ATOM     28  C   UNL     1     -59.760 -43.114 -61.159  0.00  0.00    +0.000 C 
ENDBRANCH  24  26
ENDBRANCH  13  24
TORSDOF 5
