REMARK VINA RESULT:    -6.055      3.370      5.078
REMARK INTER + INTRA:          -8.190
REMARK INTER:                  -7.253
REMARK INTRA:                  -0.937
REMARK UNBOUND:                -0.720
REMARK  Name = 
REMARK  6 active torsions:
REMARK  status: ('A' for Active; 'I' for Inactive)
REMARK    1  A    between atoms: C_1  and  C_2
REMARK    2  A    between atoms: C_2  and  C_4
REMARK    3  A    between atoms: C_5  and  S_6
REMARK    4  A    between atoms: S_6  and  C_8
REMARK    5  A    between atoms: C_8  and  C_9
REMARK    6  A    between atoms: C_11  and  C_12
REMARK                            x       y       z     vdW  Elec       q    Type
REMARK                         _______ _______ _______ _____ _____    ______ ____
ROOT
ATOM      1  C   UNL     1     -55.300 -43.925 -76.406  0.00  0.00    +0.000 A 
ATOM      2  C   UNL     1     -56.431 -43.430 -76.967  0.00  0.00    +0.000 A 
ATOM      3  N   UNL     1     -57.470 -44.232 -77.405  0.00  0.00    +0.000 N 
ATOM      4  C   UNL     1     -57.384 -45.636 -77.454  0.00  0.00    +0.000 A 
ATOM      5  C   UNL     1     -58.435 -46.411 -77.970  0.00  0.00    +0.000 A 
ATOM      6 BR   UNL     1     -59.974 -45.589 -78.723  0.00  0.00    +0.000 Br
ATOM      7  C   UNL     1     -58.379 -47.805 -77.956  0.00  0.00    +0.000 A 
ATOM      8  C   UNL     1     -57.266 -48.443 -77.416  0.00  0.00    +0.000 A 
ATOM      9  C   UNL     1     -56.210 -47.697 -76.888  0.00  0.00    +0.000 A 
ATOM     10 CL   UNL     1     -54.894 -48.634 -76.268  0.00  0.00    +0.000 Cl
ATOM     11  C   UNL     1     -56.273 -46.288 -76.894  0.00  0.00    +0.000 A 
ATOM     12  C   UNL     1     -55.192 -45.428 -76.350  0.00  0.00    +0.000 A 
ATOM     13  O   UNL     1     -54.179 -45.949 -75.888  0.00  0.00    +0.000 OA
ATOM     14  H   UNL     1     -58.127 -43.803 -78.056  0.00  0.00    +0.000 HD
ENDROOT
BRANCH   1  16
ATOM     15  C   UNL     1     -53.078 -42.634 -76.824  0.00  0.00    +0.000 C 
ATOM     16  C   UNL     1     -54.160 -43.098 -75.874  0.00  0.00    +0.000 C 
ATOM     17  O   UNL     1     -54.077 -42.798 -74.678  0.00  0.00    +0.000 OA
ENDBRANCH   1  16
BRANCH   2  18
ATOM     18  S   UNL     1     -56.600 -41.647 -77.330  0.00  0.00    +0.000 S 
ATOM     19  O   UNL     1     -56.964 -41.612 -78.791  0.00  0.00    +0.000 OA
BRANCH  18  20
ATOM     20  C   UNL     1     -58.141 -41.280 -76.419  0.00  0.00    +0.000 C 
BRANCH  20  21
ATOM     21  C   UNL     1     -58.014 -41.509 -74.945  0.00  0.00    +0.000 A 
ATOM     22  C   UNL     1     -57.005 -41.098 -74.033  0.00  0.00    +0.000 A 
ATOM     23  C   UNL     1     -57.417 -41.572 -72.814  0.00  0.00    +0.000 A 
ATOM     24  C   UNL     1     -56.854 -41.561 -71.450  0.00  0.00    +0.000 C 
ATOM     25  O   UNL     1     -58.619 -42.191 -72.965  0.00  0.00    +0.000 OA
ATOM     26  N   UNL     1     -58.999 -42.146 -74.294  0.00  0.00    +0.000 NA
ENDBRANCH  20  21
ENDBRANCH  18  20
ENDBRANCH   2  18
TORSDOF 4
