REMARK VINA RESULT:    -5.798      4.413      8.030
REMARK INTER + INTRA:          -8.436
REMARK INTER:                  -8.000
REMARK INTRA:                  -0.435
REMARK UNBOUND:                -0.943
REMARK  Name = 
REMARK  6 active torsions:
REMARK  status: ('A' for Active; 'I' for Inactive)
REMARK    1  A    between atoms: C_1  and  C_2
REMARK    2  A    between atoms: C_4  and  C_5
REMARK    3  A    between atoms: C_5  and  S_6
REMARK    4  A    between atoms: S_6  and  C_8
REMARK    5  A    between atoms: C_20  and  C_21
REMARK    6  A    between atoms: C_21  and  C_23
REMARK                            x       y       z     vdW  Elec       q    Type
REMARK                         _______ _______ _______ _____ _____    ______ ____
ROOT
ATOM      1  C   UNL     1     -54.452 -41.483 -78.979  0.00  0.00    +0.000 A 
ATOM      2  N   UNL     1     -55.769 -41.930 -79.198  0.00  0.00    +0.000 N 
ATOM      3  C   UNL     1     -56.783 -41.698 -78.228  0.00  0.00    +0.000 A 
ATOM      4  C   UNL     1     -58.157 -41.755 -78.525  0.00  0.00    +0.000 A 
ATOM      5 BR   UNL     1     -58.766 -41.972 -80.308  0.00  0.00    +0.000 Br
ATOM      6  C   UNL     1     -59.123 -41.629 -77.516  0.00  0.00    +0.000 A 
ATOM      7  C   UNL     1     -58.718 -41.416 -76.193  0.00  0.00    +0.000 A 
ATOM      8  C   UNL     1     -57.361 -41.354 -75.875  0.00  0.00    +0.000 A 
ATOM      9 CL   UNL     1     -56.968 -41.016 -74.228  0.00  0.00    +0.000 Cl
ATOM     10  C   UNL     1     -56.405 -41.518 -76.888  0.00  0.00    +0.000 A 
ATOM     11  C   UNL     1     -54.951 -41.553 -76.635  0.00  0.00    +0.000 A 
ATOM     12  O   UNL     1     -54.490 -41.974 -75.581  0.00  0.00    +0.000 OA
ATOM     13  C   UNL     1     -54.034 -41.129 -77.744  0.00  0.00    +0.000 A 
ATOM     14  H   UNL     1     -56.079 -41.770 -80.167  0.00  0.00    +0.000 HD
ENDROOT
BRANCH   1  15
ATOM     15  S   UNL     1     -53.607 -41.027 -80.516  0.00  0.00    +0.000 S 
ATOM     16  O   UNL     1     -53.995 -39.591 -80.740  0.00  0.00    +0.000 OA
BRANCH  15  17
ATOM     17  C   UNL     1     -54.289 -41.996 -81.894  0.00  0.00    +0.000 C 
BRANCH  17  21
ATOM     18  C   UNL     1     -55.083 -39.950 -86.520  0.00  0.00    +0.000 C 
ATOM     19  C   UNL     1     -54.648 -40.543 -85.242  0.00  0.00    +0.000 A 
ATOM     20  C   UNL     1     -55.275 -40.861 -84.060  0.00  0.00    +0.000 A 
ATOM     21  C   UNL     1     -54.276 -41.492 -83.286  0.00  0.00    +0.000 A 
ATOM     22  N   UNL     1     -53.102 -41.489 -83.940  0.00  0.00    +0.000 NA
ATOM     23  O   UNL     1     -53.340 -40.896 -85.162  0.00  0.00    +0.000 OA
ENDBRANCH  17  21
ENDBRANCH  15  17
ENDBRANCH   1  15
BRANCH  13  24
ATOM     24  C   UNL     1     -52.919 -40.248 -77.295  0.00  0.00    +0.000 C 
ATOM     25  O   UNL     1     -53.119 -39.071 -77.051  0.00  0.00    +0.000 OA
BRANCH  24  26
ATOM     26  C   UNL     1     -51.579 -40.836 -77.105  0.00  0.00    +0.000 C 
ATOM     27  C   UNL     1     -51.299 -41.660 -75.874  0.00  0.00    +0.000 C 
ATOM     28  C   UNL     1     -50.643 -40.323 -76.037  0.00  0.00    +0.000 C 
ENDBRANCH  24  26
ENDBRANCH  13  24
TORSDOF 5
