REMARK VINA RESULT:    -5.727     12.123     14.320
REMARK INTER + INTRA:          -8.295
REMARK INTER:                  -6.950
REMARK INTRA:                  -1.345
REMARK UNBOUND:                -0.894
REMARK  Name = 
REMARK  8 active torsions:
REMARK  status: ('A' for Active; 'I' for Inactive)
REMARK    1  A    between atoms: C_1  and  C_2
REMARK    2  A    between atoms: C_4  and  C_5
REMARK    3  A    between atoms: C_5  and  S_6
REMARK    4  A    between atoms: S_6  and  C_8
REMARK    5  A    between atoms: C_20  and  C_21
REMARK    6  A    between atoms: C_21  and  C_23
REMARK    7  A    between atoms: C_23  and  C_24
REMARK    8  A    between atoms: C_23  and  C_25
REMARK                            x       y       z     vdW  Elec       q    Type
REMARK                         _______ _______ _______ _____ _____    ______ ____
ROOT
ATOM      1  C   UNL     1     -57.070 -39.422 -62.577  0.00  0.00    +0.000 A 
ATOM      2  N   UNL     1     -56.584 -40.623 -63.088  0.00  0.00    +0.000 N 
ATOM      3  C   UNL     1     -55.269 -40.738 -63.586  0.00  0.00    +0.000 A 
ATOM      4  C   UNL     1     -54.634 -41.986 -63.740  0.00  0.00    +0.000 A 
ATOM      5 CL   UNL     1     -55.384 -43.435 -63.169  0.00  0.00    +0.000 Cl
ATOM      6  C   UNL     1     -53.375 -42.085 -64.332  0.00  0.00    +0.000 A 
ATOM      7  C   UNL     1     -52.730 -40.929 -64.777  0.00  0.00    +0.000 A 
ATOM      8  C   UNL     1     -53.338 -39.677 -64.619  0.00  0.00    +0.000 A 
ATOM      9 CL   UNL     1     -52.414 -38.317 -65.145  0.00  0.00    +0.000 Cl
ATOM     10  C   UNL     1     -54.611 -39.585 -64.035  0.00  0.00    +0.000 A 
ATOM     11  C   UNL     1     -55.383 -38.325 -63.891  0.00  0.00    +0.000 A 
ATOM     12  O   UNL     1     -55.192 -37.412 -64.685  0.00  0.00    +0.000 OA
ATOM     13  C   UNL     1     -56.457 -38.227 -62.814  0.00  0.00    +0.000 A 
ATOM     14  H   UNL     1     -56.944 -41.453 -62.599  0.00  0.00    +0.000 HD
ENDROOT
BRANCH   1  15
ATOM     15  S   UNL     1     -58.439 -39.713 -61.386  0.00  0.00    +0.000 S 
ATOM     16  O   UNL     1     -57.935 -39.102 -60.107  0.00  0.00    +0.000 OA
BRANCH  15  17
ATOM     17  C   UNL     1     -58.413 -41.539 -61.172  0.00  0.00    +0.000 C 
BRANCH  17  21
ATOM     18  C   UNL     1     -56.296 -43.074 -56.712  0.00  0.00    +0.000 C 
ATOM     19  C   UNL     1     -56.714 -42.671 -58.071  0.00  0.00    +0.000 A 
ATOM     20  C   UNL     1     -57.915 -42.380 -58.676  0.00  0.00    +0.000 A 
ATOM     21  C   UNL     1     -57.578 -42.014 -60.009  0.00  0.00    +0.000 A 
ATOM     22  N   UNL     1     -56.250 -42.116 -60.190  0.00  0.00    +0.000 NA
ATOM     23  O   UNL     1     -55.717 -42.518 -58.980  0.00  0.00    +0.000 OA
ENDBRANCH  17  21
ENDBRANCH  15  17
ENDBRANCH   1  15
BRANCH  13  24
ATOM     24  C   UNL     1     -56.624 -36.849 -62.208  0.00  0.00    +0.000 C 
ATOM     25  O   UNL     1     -57.544 -36.115 -62.592  0.00  0.00    +0.000 OA
BRANCH  24  26
ATOM     26  C   UNL     1     -55.611 -36.261 -61.243  0.00  0.00    +0.000 C 
ATOM     27  C   UNL     1     -56.277 -35.204 -60.382  0.00  0.00    +0.000 C 
ATOM     28  C   UNL     1     -54.903 -37.346 -60.440  0.00  0.00    +0.000 C 
ENDBRANCH  24  26
ENDBRANCH  13  24
TORSDOF 5
