REMARK VINA RESULT:    -5.713      3.737      5.624
REMARK INTER + INTRA:          -8.293
REMARK INTER:                  -7.160
REMARK INTRA:                  -1.133
REMARK UNBOUND:                -0.910
REMARK  Name = 
REMARK  6 active torsions:
REMARK  status: ('A' for Active; 'I' for Inactive)
REMARK    1  A    between atoms: C_1  and  C_2
REMARK    2  A    between atoms: C_4  and  C_5
REMARK    3  A    between atoms: C_5  and  S_6
REMARK    4  A    between atoms: S_6  and  C_8
REMARK    5  A    between atoms: C_20  and  C_21
REMARK    6  A    between atoms: C_21  and  C_23
REMARK                            x       y       z     vdW  Elec       q    Type
REMARK                         _______ _______ _______ _____ _____    ______ ____
ROOT
ATOM      1  C   UNL     1     -55.445 -42.530 -78.720  0.00  0.00    +0.000 A 
ATOM      2  N   UNL     1     -56.810 -42.548 -79.065  0.00  0.00    +0.000 N 
ATOM      3  C   UNL     1     -57.225 -42.239 -80.389  0.00  0.00    +0.000 A 
ATOM      4  C   UNL     1     -58.483 -42.605 -80.905  0.00  0.00    +0.000 A 
ATOM      5 BR   UNL     1     -59.664 -43.710 -79.913  0.00  0.00    +0.000 Br
ATOM      6  C   UNL     1     -58.895 -42.186 -82.177  0.00  0.00    +0.000 A 
ATOM      7  C   UNL     1     -58.034 -41.413 -82.964  0.00  0.00    +0.000 A 
ATOM      8  C   UNL     1     -56.782 -41.039 -82.476  0.00  0.00    +0.000 A 
ATOM      9 CL   UNL     1     -55.767 -40.147 -83.551  0.00  0.00    +0.000 Cl
ATOM     10  C   UNL     1     -56.395 -41.435 -81.186  0.00  0.00    +0.000 A 
ATOM     11  C   UNL     1     -55.129 -41.018 -80.553  0.00  0.00    +0.000 A 
ATOM     12  O   UNL     1     -54.601 -39.944 -80.814  0.00  0.00    +0.000 OA
ATOM     13  C   UNL     1     -54.536 -41.916 -79.509  0.00  0.00    +0.000 A 
ATOM     14  H   UNL     1     -57.306 -43.349 -78.651  0.00  0.00    +0.000 HD
ENDROOT
BRANCH   1  15
ATOM     15  S   UNL     1     -55.035 -43.744 -77.438  0.00  0.00    +0.000 S 
ATOM     16  O   UNL     1     -54.844 -45.030 -78.195  0.00  0.00    +0.000 OA
BRANCH  15  17
ATOM     17  C   UNL     1     -56.462 -43.968 -76.336  0.00  0.00    +0.000 C 
BRANCH  17  21
ATOM     18  C   UNL     1     -57.837 -40.151 -73.213  0.00  0.00    +0.000 C 
ATOM     19  C   UNL     1     -57.579 -41.165 -74.252  0.00  0.00    +0.000 A 
ATOM     20  C   UNL     1     -56.702 -42.217 -74.379  0.00  0.00    +0.000 A 
ATOM     21  C   UNL     1     -57.065 -42.836 -75.596  0.00  0.00    +0.000 A 
ATOM     22  N   UNL     1     -58.055 -42.152 -76.196  0.00  0.00    +0.000 NA
ATOM     23  O   UNL     1     -58.373 -41.110 -75.351  0.00  0.00    +0.000 OA
ENDBRANCH  17  21
ENDBRANCH  15  17
ENDBRANCH   1  15
BRANCH  13  24
ATOM     24  C   UNL     1     -53.063 -42.100 -79.643  0.00  0.00    +0.000 C 
ATOM     25  O   UNL     1     -52.306 -41.696 -78.776  0.00  0.00    +0.000 OA
BRANCH  24  26
ATOM     26  C   UNL     1     -52.540 -42.820 -80.820  0.00  0.00    +0.000 C 
ATOM     27  C   UNL     1     -51.071 -42.738 -81.146  0.00  0.00    +0.000 C 
ATOM     28  C   UNL     1     -52.069 -42.077 -82.047  0.00  0.00    +0.000 C 
ENDBRANCH  24  26
ENDBRANCH  13  24
TORSDOF 5
