REMARK VINA RESULT:    -5.721     12.522     14.322
REMARK INTER + INTRA:          -8.304
REMARK INTER:                  -7.114
REMARK INTRA:                  -1.190
REMARK UNBOUND:                -0.910
REMARK  Name = 
REMARK  6 active torsions:
REMARK  status: ('A' for Active; 'I' for Inactive)
REMARK    1  A    between atoms: C_1  and  C_2
REMARK    2  A    between atoms: C_4  and  C_5
REMARK    3  A    between atoms: C_5  and  S_6
REMARK    4  A    between atoms: S_6  and  C_8
REMARK    5  A    between atoms: C_20  and  C_21
REMARK    6  A    between atoms: C_21  and  C_23
REMARK                            x       y       z     vdW  Elec       q    Type
REMARK                         _______ _______ _______ _____ _____    ______ ____
ROOT
ATOM      1  C   UNL     1     -56.291 -44.469 -78.380  0.00  0.00    +0.000 A 
ATOM      2  N   UNL     1     -55.524 -45.464 -77.743  0.00  0.00    +0.000 N 
ATOM      3  C   UNL     1     -54.584 -45.117 -76.734  0.00  0.00    +0.000 A 
ATOM      4  C   UNL     1     -54.081 -46.044 -75.802  0.00  0.00    +0.000 A 
ATOM      5 BR   UNL     1     -54.766 -47.811 -75.711  0.00  0.00    +0.000 Br
ATOM      6  C   UNL     1     -53.074 -45.687 -74.895  0.00  0.00    +0.000 A 
ATOM      7  C   UNL     1     -52.575 -44.379 -74.893  0.00  0.00    +0.000 A 
ATOM      8  C   UNL     1     -53.060 -43.442 -75.806  0.00  0.00    +0.000 A 
ATOM      9 CL   UNL     1     -52.433 -41.839 -75.675  0.00  0.00    +0.000 Cl
ATOM     10  C   UNL     1     -54.042 -43.822 -76.733  0.00  0.00    +0.000 A 
ATOM     11  C   UNL     1     -54.552 -42.927 -77.790  0.00  0.00    +0.000 A 
ATOM     12  O   UNL     1     -53.854 -42.053 -78.287  0.00  0.00    +0.000 OA
ATOM     13  C   UNL     1     -55.941 -43.166 -78.304  0.00  0.00    +0.000 A 
ATOM     14  H   UNL     1     -56.079 -46.302 -77.522  0.00  0.00    +0.000 HD
ENDROOT
BRANCH   1  15
ATOM     15  S   UNL     1     -57.932 -45.062 -78.870  0.00  0.00    +0.000 S 
ATOM     16  O   UNL     1     -58.569 -45.496 -77.578  0.00  0.00    +0.000 OA
BRANCH  15  17
ATOM     17  C   UNL     1     -57.756 -46.540 -79.912  0.00  0.00    +0.000 C 
BRANCH  17  21
ATOM     18  C   UNL     1     -57.387 -51.310 -78.088  0.00  0.00    +0.000 C 
ATOM     19  C   UNL     1     -57.281 -49.940 -78.624  0.00  0.00    +0.000 A 
ATOM     20  C   UNL     1     -58.185 -48.989 -79.033  0.00  0.00    +0.000 A 
ATOM     21  C   UNL     1     -57.396 -47.860 -79.345  0.00  0.00    +0.000 A 
ATOM     22  N   UNL     1     -56.090 -48.142 -79.199  0.00  0.00    +0.000 NA
ATOM     23  O   UNL     1     -56.024 -49.444 -78.746  0.00  0.00    +0.000 OA
ENDBRANCH  17  21
ENDBRANCH  15  17
ENDBRANCH   1  15
BRANCH  13  24
ATOM     24  C   UNL     1     -56.740 -41.919 -78.474  0.00  0.00    +0.000 C 
ATOM     25  O   UNL     1     -56.766 -41.341 -79.547  0.00  0.00    +0.000 OA
BRANCH  24  26
ATOM     26  C   UNL     1     -57.537 -41.424 -77.335  0.00  0.00    +0.000 C 
ATOM     27  C   UNL     1     -57.849 -39.953 -77.233  0.00  0.00    +0.000 C 
ATOM     28  C   UNL     1     -56.911 -40.583 -76.249  0.00  0.00    +0.000 C 
ENDBRANCH  24  26
ENDBRANCH  13  24
TORSDOF 5
