REMARK VINA RESULT:    -7.438      0.000      0.000
REMARK INTER + INTRA:         -10.534
REMARK INTER:                  -9.613
REMARK INTRA:                  -0.922
REMARK UNBOUND:                -0.922
REMARK  Name = 
REMARK  6 active torsions:
REMARK  status: ('A' for Active; 'I' for Inactive)
REMARK    1  A    between atoms: C_1  and  C_2
REMARK    2  A    between atoms: C_4  and  C_5
REMARK    3  A    between atoms: C_5  and  S_6
REMARK    4  A    between atoms: S_6  and  C_8
REMARK    5  A    between atoms: C_20  and  C_21
REMARK    6  A    between atoms: C_21  and  C_23
REMARK                            x       y       z     vdW  Elec       q    Type
REMARK                         _______ _______ _______ _____ _____    ______ ____
ROOT
ATOM      1  C   UNL     1     -55.783 -42.779 -76.795  0.00  0.00    +0.000 A 
ATOM      2  N   UNL     1     -54.455 -43.115 -76.468  0.00  0.00    +0.000 N 
ATOM      3  C   UNL     1     -53.462 -42.104 -76.345  0.00  0.00    +0.000 A 
ATOM      4  C   UNL     1     -52.249 -42.299 -75.659  0.00  0.00    +0.000 A 
ATOM      5 BR   UNL     1     -51.921 -43.891 -74.683  0.00  0.00    +0.000 Br
ATOM      6  C   UNL     1     -51.252 -41.313 -75.655  0.00  0.00    +0.000 A 
ATOM      7  C   UNL     1     -51.473 -40.101 -76.320  0.00  0.00    +0.000 A 
ATOM      8  C   UNL     1     -52.669 -39.885 -77.004  0.00  0.00    +0.000 A 
ATOM      9 CL   UNL     1     -52.874 -38.331 -77.730  0.00  0.00    +0.000 Cl
ATOM     10  C   UNL     1     -53.644 -40.893 -77.031  0.00  0.00    +0.000 A 
ATOM     11  C   UNL     1     -54.901 -40.788 -77.798  0.00  0.00    +0.000 A 
ATOM     12  O   UNL     1     -54.971 -40.139 -78.834  0.00  0.00    +0.000 OA
ATOM     13  C   UNL     1     -56.087 -41.570 -77.316  0.00  0.00    +0.000 A 
ATOM     14  H   UNL     1     -54.404 -43.837 -75.736  0.00  0.00    +0.000 HD
ENDROOT
BRANCH   1  15
ATOM     15  S   UNL     1     -56.990 -43.904 -76.045  0.00  0.00    +0.000 S 
ATOM     16  O   UNL     1     -57.765 -44.447 -77.215  0.00  0.00    +0.000 OA
BRANCH  15  17
ATOM     17  C   UNL     1     -58.148 -42.954 -75.018  0.00  0.00    +0.000 C 
BRANCH  17  21
ATOM     18  C   UNL     1     -55.919 -41.088 -70.803  0.00  0.00    +0.000 C 
ATOM     19  C   UNL     1     -56.740 -41.537 -71.943  0.00  0.00    +0.000 A 
ATOM     20  C   UNL     1     -56.479 -42.184 -73.127  0.00  0.00    +0.000 A 
ATOM     21  C   UNL     1     -57.750 -42.385 -73.710  0.00  0.00    +0.000 A 
ATOM     22  N   UNL     1     -58.710 -41.828 -72.951  0.00  0.00    +0.000 NA
ATOM     23  O   UNL     1     -58.073 -41.300 -71.847  0.00  0.00    +0.000 OA
ENDBRANCH  17  21
ENDBRANCH  15  17
ENDBRANCH   1  15
BRANCH  13  24
ATOM     24  C   UNL     1     -57.363 -40.800 -77.341  0.00  0.00    +0.000 C 
ATOM     25  O   UNL     1     -57.585 -39.942 -76.504  0.00  0.00    +0.000 OA
BRANCH  24  26
ATOM     26  C   UNL     1     -58.329 -41.060 -78.424  0.00  0.00    +0.000 C 
ATOM     27  C   UNL     1     -59.626 -40.294 -78.461  0.00  0.00    +0.000 C 
ATOM     28  C   UNL     1     -59.640 -41.760 -78.153  0.00  0.00    +0.000 C 
ENDBRANCH  24  26
ENDBRANCH  13  24
TORSDOF 5
