=
 OpenBabel09162514333D

 28 30  0  0  0  0  0  0  0  0999 V2000
  -55.8260  -42.5900  -76.6650 C   0  0  0  0  0  0  0  0  0  0  0  0
  -54.5020  -42.9180  -76.3840 N   0  0  0  0  0  0  0  0  0  0  0  0
  -53.4910  -41.9350  -76.3280 C   0  0  0  0  0  0  0  0  0  0  0  0
  -52.2600  -42.1630  -75.6820 C   0  0  0  0  0  0  0  0  0  0  0  0
  -51.9920  -43.6130  -74.7800 Cl  0  0  0  0  0  0  0  0  0  0  0  0
  -51.2370  -41.2170  -75.7290 C   0  0  0  0  0  3  0  0  0  0  0  0
  -51.4340  -40.0220  -76.4240 C   0  0  0  0  0  3  0  0  0  0  0  0
  -52.6560  -39.7690  -77.0600 C   0  0  0  0  0  0  0  0  0  0  0  0
  -52.8040  -38.2310  -77.8280 Cl  0  0  0  0  0  0  0  0  0  0  0  0
  -53.6770  -40.7310  -77.0210 C   0  0  0  0  0  0  0  0  0  0  0  0
  -54.9790  -40.6070  -77.7240 C   0  0  0  0  0  0  0  0  0  0  0  0
  -55.0470  -39.9290  -78.7420 O   0  0  0  0  0  0  0  0  0  0  0  0
  -56.1800  -41.3950  -77.2160 C   0  0  0  0  0  0  0  0  0  0  0  0
  -54.4030  -43.6900  -75.7110 H   0  0  0  0  0  0  0  0  0  0  0  0
  -56.9800  -43.8450  -75.9770 S   0  0  2  0  0  0  0  0  0  0  0  0
  -57.6600  -44.4080  -77.1950 O   0  0  0  0  0  0  0  0  0  0  0  0
  -58.2150  -42.8150  -75.0830 C   0  0  0  0  0  2  0  0  0  0  0  0
  -55.9380  -41.0930  -70.7720 C   0  0  0  0  0  1  0  0  0  0  0  0
  -56.6600  -41.3910  -72.0270 C   0  0  0  0  0  0  0  0  0  0  0  0
  -56.7060  -42.4560  -72.8970 C   0  0  0  0  0  3  0  0  0  0  0  0
  -57.6610  -42.0860  -73.8850 C   0  0  0  0  0  0  0  0  0  0  0  0
  -58.1280  -40.8520  -73.6300 N   0  0  0  0  0  0  0  0  0  0  0  0
  -57.5080  -40.4270  -72.4710 O   0  0  0  0  0  0  0  0  0  0  0  0
  -57.5160  -40.7040  -77.3980 C   0  0  0  0  0  0  0  0  0  0  0  0
  -57.8020  -39.7250  -76.6970 O   0  0  0  0  0  0  0  0  0  0  0  0
  -58.5950  -41.2550  -78.3110 C   0  0  0  0  0  3  0  0  0  0  0  0
  -59.7030  -40.2310  -78.4710 C   0  0  0  0  0  1  0  0  0  0  0  0
  -58.0180  -41.7420  -79.6350 C   0  0  0  0  0  1  0  0  0  0  0  0
  1  2  1  0  0  0  0
  1 15  1  0  0  0  0
  2  3  1  0  0  0  0
  2 14  1  0  0  0  0
  3  4  1  0  0  0  0
  4  5  1  0  0  0  0
  6  4  2  0  0  0  0
  7  6  1  0  0  0  0
  8 10  1  0  0  0  0
  8  7  2  0  0  0  0
  9  8  1  0  0  0  0
 10  3  2  0  0  0  0
 11 13  1  0  0  0  0
 11 10  1  0  0  0  0
 12 11  2  0  0  0  0
 13  1  2  0  0  0  0
 15 16  2  6  0  0  0
 15 17  1  0  0  0  0
 17 21  1  0  0  0  0
 19 18  1  0  0  0  0
 20 19  2  0  0  0  0
 21 22  2  0  0  0  0
 21 20  1  0  0  0  0
 22 23  1  0  0  0  0
 23 19  1  0  0  0  0
 24 13  1  0  0  0  0
 24 25  2  0  0  0  0
 26 24  1  0  0  0  0
 27 26  1  0  0  0  0
 28 26  1  0  0  0  0
M  END
>  <MODEL>
1

>  <REMARK>
 VINA RESULT:    -7.549      0.000      0.000
 INTER + INTRA:         -10.753
 INTER:                  -9.755
 INTRA:                  -0.997
 UNBOUND:                -0.997
  Name = 
  8 active torsions:
  status: ('A' for Active; 'I' for Inactive)
    1  A    between atoms: C_1  and  C_2
    2  A    between atoms: C_4  and  C_5
    3  A    between atoms: C_5  and  S_6
    4  A    between atoms: S_6  and  C_8
    5  A    between atoms: C_20  and  C_21
    6  A    between atoms: C_21  and  C_23
    7  A    between atoms: C_23  and  C_24
    8  A    between atoms: C_23  and  C_25
                            x       y       z     vdW  Elec       q    Type
                         _______ _______ _______ _____ _____    ______ ____

>  <TORSDO>
F 5

$$$$
