REMARK VINA RESULT:    -5.945     21.879     25.817
REMARK INTER + INTRA:          -8.605
REMARK INTER:                  -7.754
REMARK INTRA:                  -0.851
REMARK UNBOUND:                -0.922
REMARK  Name = 
REMARK  6 active torsions:
REMARK  status: ('A' for Active; 'I' for Inactive)
REMARK    1  A    between atoms: C_1  and  C_2
REMARK    2  A    between atoms: C_4  and  C_5
REMARK    3  A    between atoms: C_5  and  S_6
REMARK    4  A    between atoms: S_6  and  C_8
REMARK    5  A    between atoms: C_20  and  C_21
REMARK    6  A    between atoms: C_21  and  C_23
REMARK                            x       y       z     vdW  Elec       q    Type
REMARK                         _______ _______ _______ _____ _____    ______ ____
ROOT
ATOM      1  C   UNL     1     -66.413 -49.328 -54.451  0.00  0.00    +0.000 A 
ATOM      2  N   UNL     1     -67.124 -50.260 -55.231  0.00  0.00    +0.000 N 
ATOM      3  C   UNL     1     -67.544 -51.499 -54.675  0.00  0.00    +0.000 A 
ATOM      4  C   UNL     1     -68.563 -52.289 -55.239  0.00  0.00    +0.000 A 
ATOM      5 BR   UNL     1     -69.589 -51.661 -56.706  0.00  0.00    +0.000 Br
ATOM      6  C   UNL     1     -68.870 -53.555 -54.722  0.00  0.00    +0.000 A 
ATOM      7  C   UNL     1     -68.172 -54.036 -53.607  0.00  0.00    +0.000 A 
ATOM      8  C   UNL     1     -67.159 -53.270 -53.030  0.00  0.00    +0.000 A 
ATOM      9 CL   UNL     1     -66.409 -53.920 -51.617  0.00  0.00    +0.000 Cl
ATOM     10  C   UNL     1     -66.837 -52.020 -53.579  0.00  0.00    +0.000 A 
ATOM     11  C   UNL     1     -65.727 -51.179 -53.090  0.00  0.00    +0.000 A 
ATOM     12  O   UNL     1     -64.719 -51.666 -52.594  0.00  0.00    +0.000 OA
ATOM     13  C   UNL     1     -65.828 -49.696 -53.290  0.00  0.00    +0.000 A 
ATOM     14  H   UNL     1     -67.836 -49.810 -55.824  0.00  0.00    +0.000 HD
ENDROOT
BRANCH   1  15
ATOM     15  S   UNL     1     -66.761 -47.614 -54.925  0.00  0.00    +0.000 S 
ATOM     16  O   UNL     1     -68.211 -47.421 -54.574  0.00  0.00    +0.000 OA
BRANCH  15  17
ATOM     17  C   UNL     1     -66.611 -47.440 -56.727  0.00  0.00    +0.000 C 
BRANCH  17  21
ATOM     18  C   UNL     1     -61.872 -46.085 -58.115  0.00  0.00    +0.000 C 
ATOM     19  C   UNL     1     -63.272 -46.506 -57.923  0.00  0.00    +0.000 A 
ATOM     20  C   UNL     1     -64.069 -46.745 -56.828  0.00  0.00    +0.000 A 
ATOM     21  C   UNL     1     -65.342 -47.027 -57.371  0.00  0.00    +0.000 A 
ATOM     22  N   UNL     1     -65.293 -47.027 -58.714  0.00  0.00    +0.000 NA
ATOM     23  O   UNL     1     -63.997 -46.700 -59.054  0.00  0.00    +0.000 OA
ENDBRANCH  17  21
ENDBRANCH  15  17
ENDBRANCH   1  15
BRANCH  13  24
ATOM     24  C   UNL     1     -65.420 -48.901 -52.096  0.00  0.00    +0.000 C 
ATOM     25  O   UNL     1     -66.179 -48.770 -51.151  0.00  0.00    +0.000 OA
BRANCH  24  26
ATOM     26  C   UNL     1     -64.066 -48.317 -52.059  0.00  0.00    +0.000 C 
ATOM     27  C   UNL     1     -63.764 -47.208 -51.084  0.00  0.00    +0.000 C 
ATOM     28  C   UNL     1     -63.805 -46.914 -52.553  0.00  0.00    +0.000 C 
ENDBRANCH  24  26
ENDBRANCH  13  24
TORSDOF 5
