REMARK VINA RESULT:    -6.671     12.137     13.468
REMARK INTER + INTRA:          -9.859
REMARK INTER:                  -8.838
REMARK INTRA:                  -1.021
REMARK UNBOUND:                -1.238
REMARK  Name = 
REMARK  8 active torsions:
REMARK  status: ('A' for Active; 'I' for Inactive)
REMARK    1  A    between atoms: C_1  and  C_2
REMARK    2  A    between atoms: C_4  and  C_5
REMARK    3  A    between atoms: C_5  and  S_6
REMARK    4  A    between atoms: S_6  and  C_8
REMARK    5  A    between atoms: C_20  and  C_21
REMARK    6  A    between atoms: C_21  and  C_23
REMARK    7  A    between atoms: C_23  and  C_24
REMARK    8  A    between atoms: C_23  and  C_25
REMARK                            x       y       z     vdW  Elec       q    Type
REMARK                         _______ _______ _______ _____ _____    ______ ____
ROOT
ATOM      1  C   UNL     1     -55.559 -42.629 -76.647  0.00  0.00    +0.000 A 
ATOM      2  N   UNL     1     -54.232 -42.957 -76.385  0.00  0.00    +0.000 N 
ATOM      3  C   UNL     1     -53.237 -41.969 -76.261  0.00  0.00    +0.000 A 
ATOM      4  C   UNL     1     -52.017 -42.212 -75.602  0.00  0.00    +0.000 A 
ATOM      5 BR   UNL     1     -51.708 -43.849 -74.694  0.00  0.00    +0.000 Br
ATOM      6  C   UNL     1     -51.015 -41.238 -75.561  0.00  0.00    +0.000 A 
ATOM      7  C   UNL     1     -51.220 -40.005 -76.174  0.00  0.00    +0.000 A 
ATOM      8  C   UNL     1     -52.435 -39.739 -76.831  0.00  0.00    +0.000 A 
ATOM      9 CL   UNL     1     -52.600 -38.152 -77.491  0.00  0.00    +0.000 Cl
ATOM     10  C   UNL     1     -53.443 -40.724 -76.878  0.00  0.00    +0.000 A 
ATOM     11  C   UNL     1     -54.745 -40.554 -77.574  0.00  0.00    +0.000 A 
ATOM     12  O   UNL     1     -54.851 -39.743 -78.489  0.00  0.00    +0.000 OA
ATOM     13  C   UNL     1     -55.923 -41.420 -77.138  0.00  0.00    +0.000 A 
ATOM     14  H   UNL     1     -54.119 -43.790 -75.790  0.00  0.00    +0.000 HD
ENDROOT
BRANCH   1  15
ATOM     15  S   UNL     1     -56.704 -43.928 -76.048  0.00  0.00    +0.000 S 
ATOM     16  O   UNL     1     -57.348 -43.308 -74.837  0.00  0.00    +0.000 OA
BRANCH  15  17
ATOM     17  C   UNL     1     -55.580 -45.253 -75.491  0.00  0.00    +0.000 C 
BRANCH  17  21
ATOM     18  C   UNL     1     -55.284 -49.862 -77.830  0.00  0.00    +0.000 C 
ATOM     19  C   UNL     1     -55.411 -48.469 -77.349  0.00  0.00    +0.000 A 
ATOM     20  C   UNL     1     -55.416 -47.860 -76.115  0.00  0.00    +0.000 A 
ATOM     21  C   UNL     1     -55.548 -46.468 -76.388  0.00  0.00    +0.000 A 
ATOM     22  N   UNL     1     -55.638 -46.271 -77.715  0.00  0.00    +0.000 NA
ATOM     23  O   UNL     1     -55.549 -47.516 -78.307  0.00  0.00    +0.000 OA
ENDBRANCH  17  21
ENDBRANCH  15  17
ENDBRANCH   1  15
BRANCH  13  24
ATOM     24  C   UNL     1     -57.301 -40.811 -77.273  0.00  0.00    +0.000 C 
ATOM     25  O   UNL     1     -57.707 -40.009 -76.434  0.00  0.00    +0.000 OA
BRANCH  24  26
ATOM     26  C   UNL     1     -58.225 -41.236 -78.415  0.00  0.00    +0.000 C 
ATOM     27  C   UNL     1     -57.469 -41.997 -79.501  0.00  0.00    +0.000 C 
ATOM     28  C   UNL     1     -59.411 -42.065 -77.913  0.00  0.00    +0.000 C 
ENDBRANCH  24  26
ENDBRANCH  13  24
TORSDOF 5
