REMARK VINA RESULT:    -5.724     22.627     23.458
REMARK INTER + INTRA:          -7.732
REMARK INTER:                  -6.717
REMARK INTRA:                  -1.015
REMARK UNBOUND:                -0.670
REMARK  Name = 
REMARK  6 active torsions:
REMARK  status: ('A' for Active; 'I' for Inactive)
REMARK    1  A    between atoms: C_1  and  C_2
REMARK    2  A    between atoms: C_2  and  C_4
REMARK    3  A    between atoms: C_5  and  S_6
REMARK    4  A    between atoms: S_6  and  C_8
REMARK    5  A    between atoms: C_8  and  C_9
REMARK    6  A    between atoms: C_11  and  C_12
REMARK                            x       y       z     vdW  Elec       q    Type
REMARK                         _______ _______ _______ _____ _____    ______ ____
ROOT
ATOM      1  C   UNL     1     -66.384 -47.481 -56.693  0.00  0.00    +0.000 A 
ATOM      2  C   UNL     1     -65.733 -46.368 -56.284  0.00  0.00    +0.000 A 
ATOM      3  N   UNL     1     -64.975 -46.315 -55.129  0.00  0.00    +0.000 N 
ATOM      4  C   UNL     1     -64.919 -47.370 -54.204  0.00  0.00    +0.000 A 
ATOM      5  C   UNL     1     -64.155 -47.262 -53.026  0.00  0.00    +0.000 A 
ATOM      6 BR   UNL     1     -63.241 -45.651 -52.602  0.00  0.00    +0.000 Br
ATOM      7  C   UNL     1     -64.050 -48.327 -52.134  0.00  0.00    +0.000 A 
ATOM      8  C   UNL     1     -64.702 -49.523 -52.414  0.00  0.00    +0.000 A 
ATOM      9  C   UNL     1     -65.454 -49.666 -53.589  0.00  0.00    +0.000 A 
ATOM     10 CL   UNL     1     -66.198 -51.214 -53.792  0.00  0.00    +0.000 Cl
ATOM     11  C   UNL     1     -65.549 -48.594 -54.497  0.00  0.00    +0.000 A 
ATOM     12  C   UNL     1     -66.329 -48.664 -55.762  0.00  0.00    +0.000 A 
ATOM     13  O   UNL     1     -66.972 -49.671 -56.024  0.00  0.00    +0.000 OA
ATOM     14  H   UNL     1     -64.813 -45.381 -54.746  0.00  0.00    +0.000 HD
ENDROOT
BRANCH   1  16
ATOM     15  C   UNL     1     -66.457 -47.919 -59.259  0.00  0.00    +0.000 C 
ATOM     16  C   UNL     1     -67.178 -47.595 -57.969  0.00  0.00    +0.000 C 
ATOM     17  O   UNL     1     -68.395 -47.409 -57.995  0.00  0.00    +0.000 OA
ENDBRANCH   1  16
BRANCH   2  18
ATOM     18  S   UNL     1     -65.954 -44.774 -57.150  0.00  0.00    +0.000 S 
ATOM     19  O   UNL     1     -66.490 -43.864 -56.077  0.00  0.00    +0.000 OA
BRANCH  18  20
ATOM     20  C   UNL     1     -64.205 -44.302 -57.387  0.00  0.00    +0.000 C 
BRANCH  20  21
ATOM     21  C   UNL     1     -63.435 -45.291 -58.206  0.00  0.00    +0.000 A 
ATOM     22  C   UNL     1     -63.466 -45.556 -59.602  0.00  0.00    +0.000 A 
ATOM     23  C   UNL     1     -62.503 -46.514 -59.797  0.00  0.00    +0.000 A 
ATOM     24  C   UNL     1     -61.996 -47.249 -60.975  0.00  0.00    +0.000 C 
ATOM     25  O   UNL     1     -61.914 -46.800 -58.609  0.00  0.00    +0.000 OA
ATOM     26  N   UNL     1     -62.489 -46.034 -57.611  0.00  0.00    +0.000 NA
ENDBRANCH  20  21
ENDBRANCH  18  20
ENDBRANCH   2  18
TORSDOF 4
