REMARK VINA RESULT:    -5.988      3.402      4.940
REMARK INTER + INTRA:          -8.649
REMARK INTER:                  -7.676
REMARK INTRA:                  -0.973
REMARK UNBOUND:                -0.911
REMARK  Name = 
REMARK  6 active torsions:
REMARK  status: ('A' for Active; 'I' for Inactive)
REMARK    1  A    between atoms: C_1  and  C_2
REMARK    2  A    between atoms: C_4  and  C_5
REMARK    3  A    between atoms: C_5  and  S_6
REMARK    4  A    between atoms: S_6  and  C_8
REMARK    5  A    between atoms: C_20  and  C_21
REMARK    6  A    between atoms: C_21  and  C_23
REMARK                            x       y       z     vdW  Elec       q    Type
REMARK                         _______ _______ _______ _____ _____    ______ ____
ROOT
ATOM      1  C   UNL     1     -55.868 -42.489 -77.876  0.00  0.00    +0.000 A 
ATOM      2  N   UNL     1     -55.129 -41.320 -77.610  0.00  0.00    +0.000 N 
ATOM      3  C   UNL     1     -53.841 -41.399 -77.013  0.00  0.00    +0.000 A 
ATOM      4  C   UNL     1     -52.901 -40.352 -77.074  0.00  0.00    +0.000 A 
ATOM      5 BR   UNL     1     -53.224 -38.806 -78.124  0.00  0.00    +0.000 Br
ATOM      6  C   UNL     1     -51.686 -40.428 -76.379  0.00  0.00    +0.000 A 
ATOM      7  C   UNL     1     -51.385 -41.573 -75.633  0.00  0.00    +0.000 A 
ATOM      8  C   UNL     1     -52.299 -42.624 -75.560  0.00  0.00    +0.000 A 
ATOM      9 CL   UNL     1     -51.803 -44.021 -74.674  0.00  0.00    +0.000 Cl
ATOM     10  C   UNL     1     -53.528 -42.521 -76.231  0.00  0.00    +0.000 A 
ATOM     11  C   UNL     1     -54.590 -43.541 -76.142  0.00  0.00    +0.000 A 
ATOM     12  O   UNL     1     -54.740 -44.230 -75.140  0.00  0.00    +0.000 OA
ATOM     13  C   UNL     1     -55.545 -43.664 -77.292  0.00  0.00    +0.000 A 
ATOM     14  H   UNL     1     -55.189 -40.638 -78.378  0.00  0.00    +0.000 HD
ENDROOT
BRANCH   1  15
ATOM     15  S   UNL     1     -56.919 -42.329 -79.343  0.00  0.00    +0.000 S 
ATOM     16  O   UNL     1     -56.145 -41.416 -80.255  0.00  0.00    +0.000 OA
BRANCH  15  17
ATOM     17  C   UNL     1     -58.459 -41.474 -78.897  0.00  0.00    +0.000 C 
BRANCH  17  21
ATOM     18  C   UNL     1     -62.218 -44.235 -76.785  0.00  0.00    +0.000 C 
ATOM     19  C   UNL     1     -61.286 -43.364 -77.524  0.00  0.00    +0.000 A 
ATOM     20  C   UNL     1     -59.958 -43.032 -77.388  0.00  0.00    +0.000 A 
ATOM     21  C   UNL     1     -59.680 -42.214 -78.505  0.00  0.00    +0.000 A 
ATOM     22  N   UNL     1     -60.795 -42.010 -79.229  0.00  0.00    +0.000 NA
ATOM     23  O   UNL     1     -61.795 -42.732 -78.612  0.00  0.00    +0.000 OA
ENDBRANCH  17  21
ENDBRANCH  15  17
ENDBRANCH   1  15
BRANCH  13  24
ATOM     24  C   UNL     1     -55.829 -45.072 -77.688  0.00  0.00    +0.000 C 
ATOM     25  O   UNL     1     -54.954 -45.767 -78.176  0.00  0.00    +0.000 OA
BRANCH  24  26
ATOM     26  C   UNL     1     -57.173 -45.626 -77.435  0.00  0.00    +0.000 C 
ATOM     27  C   UNL     1     -57.472 -47.052 -77.822  0.00  0.00    +0.000 C 
ATOM     28  C   UNL     1     -58.121 -45.928 -78.571  0.00  0.00    +0.000 C 
ENDBRANCH  24  26
ENDBRANCH  13  24
TORSDOF 5
