REMARK VINA RESULT:    -6.703      3.313      5.763
REMARK INTER + INTRA:          -9.580
REMARK INTER:                  -8.243
REMARK INTRA:                  -1.336
REMARK UNBOUND:                -0.917
REMARK  Name = 
REMARK  6 active torsions:
REMARK  status: ('A' for Active; 'I' for Inactive)
REMARK    1  A    between atoms: C_1  and  C_2
REMARK    2  A    between atoms: C_4  and  C_5
REMARK    3  A    between atoms: C_5  and  S_6
REMARK    4  A    between atoms: S_6  and  C_8
REMARK    5  A    between atoms: C_20  and  C_21
REMARK    6  A    between atoms: C_21  and  C_23
REMARK                            x       y       z     vdW  Elec       q    Type
REMARK                         _______ _______ _______ _____ _____    ______ ____
ROOT
ATOM      1  C   UNL     1     -56.014 -41.648 -77.223  0.00  0.00    +0.000 A 
ATOM      2  N   UNL     1     -55.073 -40.613 -77.052  0.00  0.00    +0.000 N 
ATOM      3  C   UNL     1     -53.736 -40.908 -76.667  0.00  0.00    +0.000 A 
ATOM      4  C   UNL     1     -52.669 -40.009 -76.853  0.00  0.00    +0.000 A 
ATOM      5 BR   UNL     1     -52.908 -38.387 -77.806  0.00  0.00    +0.000 Br
ATOM      6  C   UNL     1     -51.387 -40.294 -76.360  0.00  0.00    +0.000 A 
ATOM      7  C   UNL     1     -51.154 -41.503 -75.695  0.00  0.00    +0.000 A 
ATOM      8  C   UNL     1     -52.197 -42.410 -75.501  0.00  0.00    +0.000 A 
ATOM      9 CL   UNL     1     -51.790 -43.903 -74.734  0.00  0.00    +0.000 Cl
ATOM     10  C   UNL     1     -53.482 -42.098 -75.967  0.00  0.00    +0.000 A 
ATOM     11  C   UNL     1     -54.662 -42.953 -75.734  0.00  0.00    +0.000 A 
ATOM     12  O   UNL     1     -54.761 -43.657 -74.737  0.00  0.00    +0.000 OA
ATOM     13  C   UNL     1     -55.789 -42.882 -76.722  0.00  0.00    +0.000 A 
ATOM     14  H   UNL     1     -55.145 -39.897 -77.787  0.00  0.00    +0.000 HD
ENDROOT
BRANCH   1  15
ATOM     15  S   UNL     1     -57.239 -41.270 -78.503  0.00  0.00    +0.000 S 
ATOM     16  O   UNL     1     -58.444 -42.081 -78.112  0.00  0.00    +0.000 OA
BRANCH  15  17
ATOM     17  C   UNL     1     -56.657 -41.899 -80.105  0.00  0.00    +0.000 C 
BRANCH  17  21
ATOM     18  C   UNL     1     -51.883 -42.669 -81.789  0.00  0.00    +0.000 C 
ATOM     19  C   UNL     1     -53.198 -42.245 -81.273  0.00  0.00    +0.000 A 
ATOM     20  C   UNL     1     -54.424 -42.852 -81.136  0.00  0.00    +0.000 A 
ATOM     21  C   UNL     1     -55.222 -41.892 -80.474  0.00  0.00    +0.000 A 
ATOM     22  N   UNL     1     -54.534 -40.752 -80.290  0.00  0.00    +0.000 NA
ATOM     23  O   UNL     1     -53.269 -40.979 -80.790  0.00  0.00    +0.000 OA
ENDBRANCH  17  21
ENDBRANCH  15  17
ENDBRANCH   1  15
BRANCH  13  24
ATOM     24  C   UNL     1     -56.340 -44.215 -77.099  0.00  0.00    +0.000 C 
ATOM     25  O   UNL     1     -57.445 -44.558 -76.716  0.00  0.00    +0.000 OA
BRANCH  24  26
ATOM     26  C   UNL     1     -55.546 -45.090 -77.981  0.00  0.00    +0.000 C 
ATOM     27  C   UNL     1     -56.016 -46.496 -78.249  0.00  0.00    +0.000 C 
ATOM     28  C   UNL     1     -54.782 -46.271 -77.430  0.00  0.00    +0.000 C 
ENDBRANCH  24  26
ENDBRANCH  13  24
TORSDOF 5
