REMARK VINA RESULT:    -5.579     20.432     22.997
REMARK INTER + INTRA:          -8.120
REMARK INTER:                  -7.030
REMARK INTRA:                  -1.090
REMARK UNBOUND:                -0.911
REMARK  Name = 
REMARK  6 active torsions:
REMARK  status: ('A' for Active; 'I' for Inactive)
REMARK    1  A    between atoms: C_1  and  C_2
REMARK    2  A    between atoms: C_4  and  C_5
REMARK    3  A    between atoms: C_5  and  S_6
REMARK    4  A    between atoms: S_6  and  C_8
REMARK    5  A    between atoms: C_20  and  C_21
REMARK    6  A    between atoms: C_21  and  C_23
REMARK                            x       y       z     vdW  Elec       q    Type
REMARK                         _______ _______ _______ _____ _____    ______ ____
ROOT
ATOM      1  C   UNL     1     -47.812 -24.978 -62.074  0.00  0.00    +0.000 A 
ATOM      2  N   UNL     1     -47.626 -24.981 -63.470  0.00  0.00    +0.000 N 
ATOM      3  C   UNL     1     -48.351 -24.081 -64.298  0.00  0.00    +0.000 A 
ATOM      4  C   UNL     1     -47.953 -23.753 -65.608  0.00  0.00    +0.000 A 
ATOM      5 BR   UNL     1     -46.298 -24.359 -66.309  0.00  0.00    +0.000 Br
ATOM      6  C   UNL     1     -48.754 -22.949 -66.430  0.00  0.00    +0.000 A 
ATOM      7  C   UNL     1     -49.960 -22.437 -65.934  0.00  0.00    +0.000 A 
ATOM      8  C   UNL     1     -50.374 -22.747 -64.639  0.00  0.00    +0.000 A 
ATOM      9 CL   UNL     1     -51.838 -22.009 -64.098  0.00  0.00    +0.000 Cl
ATOM     10  C   UNL     1     -49.580 -23.583 -63.839  0.00  0.00    +0.000 A 
ATOM     11  C   UNL     1     -49.976 -24.034 -62.491  0.00  0.00    +0.000 A 
ATOM     12  O   UNL     1     -51.151 -24.187 -62.182  0.00  0.00    +0.000 OA
ATOM     13  C   UNL     1     -48.889 -24.381 -61.517  0.00  0.00    +0.000 A 
ATOM     14  H   UNL     1     -46.635 -25.077 -63.730  0.00  0.00    +0.000 HD
ENDROOT
BRANCH   1  15
ATOM     15  S   UNL     1     -46.306 -25.423 -61.169  0.00  0.00    +0.000 S 
ATOM     16  O   UNL     1     -45.262 -25.574 -62.241  0.00  0.00    +0.000 OA
BRANCH  15  17
ATOM     17  C   UNL     1     -46.525 -27.051 -60.391  0.00  0.00    +0.000 C 
BRANCH  17  21
ATOM     18  C   UNL     1     -50.397 -30.301 -61.205  0.00  0.00    +0.000 C 
ATOM     19  C   UNL     1     -49.261 -29.361 -61.183  0.00  0.00    +0.000 A 
ATOM     20  C   UNL     1     -48.614 -28.650 -60.200  0.00  0.00    +0.000 A 
ATOM     21  C   UNL     1     -47.543 -28.016 -60.868  0.00  0.00    +0.000 A 
ATOM     22  N   UNL     1     -47.589 -28.275 -62.186  0.00  0.00    +0.000 NA
ATOM     23  O   UNL     1     -48.664 -29.118 -62.377  0.00  0.00    +0.000 OA
ENDBRANCH  17  21
ENDBRANCH  15  17
ENDBRANCH   1  15
BRANCH  13  24
ATOM     24  C   UNL     1     -49.122 -23.849 -60.144  0.00  0.00    +0.000 C 
ATOM     25  O   UNL     1     -48.809 -22.705 -59.862  0.00  0.00    +0.000 OA
BRANCH  24  26
ATOM     26  C   UNL     1     -49.782 -24.714 -59.149  0.00  0.00    +0.000 C 
ATOM     27  C   UNL     1     -49.956 -24.219 -57.736  0.00  0.00    +0.000 C 
ATOM     28  C   UNL     1     -49.002 -25.340 -58.017  0.00  0.00    +0.000 C 
ENDBRANCH  24  26
ENDBRANCH  13  24
TORSDOF 5
