REMARK VINA RESULT:    -5.818     16.395     18.557
REMARK INTER + INTRA:          -7.859
REMARK INTER:                  -7.051
REMARK INTRA:                  -0.808
REMARK UNBOUND:                -0.681
REMARK  Name = 
REMARK  6 active torsions:
REMARK  status: ('A' for Active; 'I' for Inactive)
REMARK    1  A    between atoms: C_1  and  C_2
REMARK    2  A    between atoms: C_2  and  C_4
REMARK    3  A    between atoms: C_5  and  S_6
REMARK    4  A    between atoms: S_6  and  C_8
REMARK    5  A    between atoms: C_8  and  C_9
REMARK    6  A    between atoms: C_11  and  C_12
REMARK                            x       y       z     vdW  Elec       q    Type
REMARK                         _______ _______ _______ _____ _____    ______ ____
ROOT
ATOM      1  C   UNL     1     -69.081 -50.980 -55.151  0.00  0.00    +0.000 A 
ATOM      2  C   UNL     1     -68.224 -49.937 -55.208  0.00  0.00    +0.000 A 
ATOM      3  N   UNL     1     -67.000 -49.922 -54.569  0.00  0.00    +0.000 N 
ATOM      4  C   UNL     1     -66.589 -50.937 -53.689  0.00  0.00    +0.000 A 
ATOM      5  C   UNL     1     -65.338 -50.873 -53.047  0.00  0.00    +0.000 A 
ATOM      6 BR   UNL     1     -64.185 -49.382 -53.298  0.00  0.00    +0.000 Br
ATOM      7  C   UNL     1     -64.903 -51.901 -52.214  0.00  0.00    +0.000 A 
ATOM      8  C   UNL     1     -65.716 -53.011 -52.013  0.00  0.00    +0.000 A 
ATOM      9  C   UNL     1     -66.956 -53.113 -52.656  0.00  0.00    +0.000 A 
ATOM     10 CL   UNL     1     -67.855 -54.547 -52.299  0.00  0.00    +0.000 Cl
ATOM     11  C   UNL     1     -67.386 -52.083 -53.518  0.00  0.00    +0.000 A 
ATOM     12  C   UNL     1     -68.680 -52.120 -54.256  0.00  0.00    +0.000 A 
ATOM     13  O   UNL     1     -69.445 -53.067 -54.099  0.00  0.00    +0.000 OA
ATOM     14  H   UNL     1     -66.608 -48.998 -54.386  0.00  0.00    +0.000 HD
ENDROOT
BRANCH   1  16
ATOM     15  C   UNL     1     -70.450 -51.679 -57.253  0.00  0.00    +0.000 C 
ATOM     16  C   UNL     1     -70.399 -51.044 -55.878  0.00  0.00    +0.000 C 
ATOM     17  O   UNL     1     -71.432 -50.583 -55.392  0.00  0.00    +0.000 OA
ENDBRANCH   1  16
BRANCH   2  18
ATOM     18  S   UNL     1     -68.695 -48.360 -55.999  0.00  0.00    +0.000 S 
ATOM     19  O   UNL     1     -69.512 -47.670 -54.940  0.00  0.00    +0.000 OA
BRANCH  18  20
ATOM     20  C   UNL     1     -67.068 -47.525 -55.998  0.00  0.00    +0.000 C 
BRANCH  20  21
ATOM     21  C   UNL     1     -66.452 -47.539 -57.358  0.00  0.00    +0.000 A 
ATOM     22  C   UNL     1     -65.273 -46.893 -57.816  0.00  0.00    +0.000 A 
ATOM     23  C   UNL     1     -65.158 -47.275 -59.130  0.00  0.00    +0.000 A 
ATOM     24  C   UNL     1     -64.202 -46.982 -60.215  0.00  0.00    +0.000 C 
ATOM     25  O   UNL     1     -66.187 -48.107 -59.442  0.00  0.00    +0.000 OA
ATOM     26  N   UNL     1     -66.996 -48.282 -58.333  0.00  0.00    +0.000 NA
ENDBRANCH  20  21
ENDBRANCH  18  20
ENDBRANCH   2  18
TORSDOF 4
