REMARK VINA RESULT:    -5.047     10.988     13.892
REMARK INTER + INTRA:          -7.392
REMARK INTER:                  -6.412
REMARK INTRA:                  -0.980
REMARK UNBOUND:                -0.869
REMARK  Name = 
REMARK  6 active torsions:
REMARK  status: ('A' for Active; 'I' for Inactive)
REMARK    1  A    between atoms: C_1  and  C_2
REMARK    2  A    between atoms: C_4  and  C_5
REMARK    3  A    between atoms: C_5  and  S_6
REMARK    4  A    between atoms: S_6  and  C_8
REMARK    5  A    between atoms: C_20  and  C_21
REMARK    6  A    between atoms: C_21  and  C_23
REMARK                            x       y       z     vdW  Elec       q    Type
REMARK                         _______ _______ _______ _____ _____    ______ ____
ROOT
ATOM      1  C   UNL     1     -66.357 -41.581 -71.861  0.00  0.00    +0.000 A 
ATOM      2  N   UNL     1     -65.275 -41.932 -72.692  0.00  0.00    +0.000 N 
ATOM      3  C   UNL     1     -63.973 -42.108 -72.148  0.00  0.00    +0.000 A 
ATOM      4  C   UNL     1     -62.954 -42.819 -72.809  0.00  0.00    +0.000 A 
ATOM      5 BR   UNL     1     -63.303 -43.759 -74.419  0.00  0.00    +0.000 Br
ATOM      6  C   UNL     1     -61.653 -42.875 -72.289  0.00  0.00    +0.000 A 
ATOM      7  C   UNL     1     -61.365 -42.238 -71.076  0.00  0.00    +0.000 A 
ATOM      8  C   UNL     1     -62.359 -41.529 -70.401  0.00  0.00    +0.000 A 
ATOM      9 CL   UNL     1     -61.920 -40.841 -68.880  0.00  0.00    +0.000 Cl
ATOM     10  C   UNL     1     -63.648 -41.451 -70.951  0.00  0.00    +0.000 A 
ATOM     11  C   UNL     1     -64.738 -40.655 -70.354  0.00  0.00    +0.000 A 
ATOM     12  O   UNL     1     -64.517 -39.636 -69.713  0.00  0.00    +0.000 OA
ATOM     13  C   UNL     1     -66.150 -41.086 -70.621  0.00  0.00    +0.000 A 
ATOM     14  H   UNL     1     -65.533 -42.645 -73.387  0.00  0.00    +0.000 HD
ENDROOT
BRANCH   1  15
ATOM     15  S   UNL     1     -67.931 -42.269 -72.440  0.00  0.00    +0.000 S 
ATOM     16  O   UNL     1     -67.685 -43.752 -72.502  0.00  0.00    +0.000 OA
BRANCH  15  17
ATOM     17  C   UNL     1     -68.254 -41.701 -74.136  0.00  0.00    +0.000 C 
BRANCH  17  21
ATOM     18  C   UNL     1     -67.806 -44.136 -78.617  0.00  0.00    +0.000 C 
ATOM     19  C   UNL     1     -67.739 -43.508 -77.285  0.00  0.00    +0.000 A 
ATOM     20  C   UNL     1     -68.553 -42.657 -76.575  0.00  0.00    +0.000 A 
ATOM     21  C   UNL     1     -67.925 -42.532 -75.316  0.00  0.00    +0.000 A 
ATOM     22  N   UNL     1     -66.766 -43.214 -75.298  0.00  0.00    +0.000 NA
ATOM     23  O   UNL     1     -66.656 -43.823 -76.531  0.00  0.00    +0.000 OA
ENDBRANCH  17  21
ENDBRANCH  15  17
ENDBRANCH   1  15
BRANCH  13  24
ATOM     24  C   UNL     1     -67.026 -41.050 -69.415  0.00  0.00    +0.000 C 
ATOM     25  O   UNL     1     -67.918 -40.224 -69.322  0.00  0.00    +0.000 OA
BRANCH  24  26
ATOM     26  C   UNL     1     -66.825 -42.060 -68.359  0.00  0.00    +0.000 C 
ATOM     27  C   UNL     1     -66.394 -43.453 -68.739  0.00  0.00    +0.000 C 
ATOM     28  C   UNL     1     -67.773 -43.225 -68.200  0.00  0.00    +0.000 C 
ENDBRANCH  24  26
ENDBRANCH  13  24
TORSDOF 5
