REMARK VINA RESULT:    -5.521     12.166     14.840
REMARK INTER + INTRA:          -7.783
REMARK INTER:                  -7.087
REMARK INTRA:                  -0.695
REMARK UNBOUND:                -0.971
REMARK  Name = 
REMARK  6 active torsions:
REMARK  status: ('A' for Active; 'I' for Inactive)
REMARK    1  A    between atoms: C_1  and  C_2
REMARK    2  A    between atoms: C_2  and  C_4
REMARK    3  A    between atoms: C_5  and  S_6
REMARK    4  A    between atoms: S_6  and  C_8
REMARK    5  A    between atoms: C_8  and  C_9
REMARK    6  A    between atoms: C_11  and  C_12
REMARK                            x       y       z     vdW  Elec       q    Type
REMARK                         _______ _______ _______ _____ _____    ______ ____
ROOT
ATOM      1  C   UNL     1     -57.944 -41.508 -61.291  0.00  0.00    +0.000 A 
ATOM      2  C   UNL     1     -57.254 -41.997 -62.349  0.00  0.00    +0.000 A 
ATOM      3  N   UNL     1     -56.181 -42.862 -62.223  0.00  0.00    +0.000 N 
ATOM      4  C   UNL     1     -55.580 -43.143 -60.981  0.00  0.00    +0.000 A 
ATOM      5  C   UNL     1     -54.424 -43.942 -60.902  0.00  0.00    +0.000 A 
ATOM      6 BR   UNL     1     -53.593 -44.615 -62.473  0.00  0.00    +0.000 Br
ATOM      7  C   UNL     1     -53.849 -44.257 -59.673  0.00  0.00    +0.000 A 
ATOM      8  C   UNL     1     -54.428 -43.780 -58.502  0.00  0.00    +0.000 A 
ATOM      9  C   UNL     1     -55.594 -43.005 -58.551  0.00  0.00    +0.000 A 
ATOM     10 CL   UNL     1     -56.177 -42.460 -57.016  0.00  0.00    +0.000 Cl
ATOM     11  C   UNL     1     -56.188 -42.705 -59.793  0.00  0.00    +0.000 A 
ATOM     12  C   UNL     1     -57.447 -41.921 -59.929  0.00  0.00    +0.000 A 
ATOM     13  O   UNL     1     -58.064 -41.594 -58.924  0.00  0.00    +0.000 OA
ATOM     14  H   UNL     1     -55.540 -42.868 -63.018  0.00  0.00    +0.000 HD
ENDROOT
BRANCH   1  16
ATOM     15  C   UNL     1     -58.901 -39.079 -61.346  0.00  0.00    +0.000 C 
ATOM     16  C   UNL     1     -59.125 -40.576 -61.398  0.00  0.00    +0.000 C 
ATOM     17  O   UNL     1     -60.276 -41.001 -61.520  0.00  0.00    +0.000 OA
ENDBRANCH   1  16
BRANCH   2  18
ATOM     18  S   UNL     1     -57.571 -41.416 -64.058  0.00  0.00    +0.000 S 
ATOM     19  O   UNL     1     -56.716 -40.181 -64.163  0.00  0.00    +0.000 OA
BRANCH  18  20
ATOM     20  C   UNL     1     -56.687 -42.721 -64.983  0.00  0.00    +0.000 C 
BRANCH  20  21
ATOM     21  C   UNL     1     -56.783 -42.537 -66.466  0.00  0.00    +0.000 A 
ATOM     22  C   UNL     1     -55.940 -41.805 -67.343  0.00  0.00    +0.000 A 
ATOM     23  C   UNL     1     -56.418 -42.083 -68.601  0.00  0.00    +0.000 A 
ATOM     24  C   UNL     1     -56.024 -41.706 -69.972  0.00  0.00    +0.000 C 
ATOM     25  O   UNL     1     -57.490 -42.916 -68.489  0.00  0.00    +0.000 OA
ATOM     26  N   UNL     1     -57.716 -43.208 -67.156  0.00  0.00    +0.000 NA
ENDBRANCH  20  21
ENDBRANCH  18  20
ENDBRANCH   2  18
TORSDOF 4
