REMARK VINA RESULT:    -6.241     10.570     13.136
REMARK INTER + INTRA:          -8.367
REMARK INTER:                  -7.317
REMARK INTRA:                  -1.050
REMARK UNBOUND:                -0.667
REMARK  Name = 
REMARK  6 active torsions:
REMARK  status: ('A' for Active; 'I' for Inactive)
REMARK    1  A    between atoms: C_1  and  C_2
REMARK    2  A    between atoms: C_2  and  C_4
REMARK    3  A    between atoms: C_5  and  S_6
REMARK    4  A    between atoms: S_6  and  C_8
REMARK    5  A    between atoms: C_8  and  C_9
REMARK    6  A    between atoms: C_11  and  C_12
REMARK                            x       y       z     vdW  Elec       q    Type
REMARK                         _______ _______ _______ _____ _____    ______ ____
ROOT
ATOM      1  C   UNL     1     -54.683 -43.225 -75.278  0.00  0.00    +0.000 A 
ATOM      2  C   UNL     1     -55.435 -43.564 -76.349  0.00  0.00    +0.000 A 
ATOM      3  N   UNL     1     -56.803 -43.375 -76.405  0.00  0.00    +0.000 N 
ATOM      4  C   UNL     1     -57.555 -42.903 -75.317  0.00  0.00    +0.000 A 
ATOM      5  C   UNL     1     -58.942 -42.688 -75.435  0.00  0.00    +0.000 A 
ATOM      6 BR   UNL     1     -59.858 -43.091 -77.051  0.00  0.00    +0.000 Br
ATOM      7  C   UNL     1     -59.682 -42.168 -74.375  0.00  0.00    +0.000 A 
ATOM      8  C   UNL     1     -59.043 -41.850 -73.182  0.00  0.00    +0.000 A 
ATOM      9  C   UNL     1     -57.661 -42.029 -73.046  0.00  0.00    +0.000 A 
ATOM     10 CL   UNL     1     -57.010 -41.582 -71.507  0.00  0.00    +0.000 Cl
ATOM     11  C   UNL     1     -56.906 -42.537 -74.124  0.00  0.00    +0.000 A 
ATOM     12  C   UNL     1     -55.434 -42.743 -74.065  0.00  0.00    +0.000 A 
ATOM     13  O   UNL     1     -54.831 -42.570 -73.013  0.00  0.00    +0.000 OA
ATOM     14  H   UNL     1     -57.305 -43.957 -77.077  0.00  0.00    +0.000 HD
ENDROOT
BRANCH   1  16
ATOM     15  C   UNL     1     -52.571 -44.621 -74.698  0.00  0.00    +0.000 C 
ATOM     16  C   UNL     1     -53.184 -43.338 -75.211  0.00  0.00    +0.000 C 
ATOM     17  O   UNL     1     -52.448 -42.406 -75.533  0.00  0.00    +0.000 OA
ENDBRANCH   1  16
BRANCH   2  18
ATOM     18  S   UNL     1     -54.716 -44.472 -77.758  0.00  0.00    +0.000 S 
ATOM     19  O   UNL     1     -55.729 -45.553 -78.030  0.00  0.00    +0.000 OA
BRANCH  18  20
ATOM     20  C   UNL     1     -54.946 -43.223 -79.073  0.00  0.00    +0.000 C 
BRANCH  20  21
ATOM     21  C   UNL     1     -54.158 -41.983 -78.799  0.00  0.00    +0.000 A 
ATOM     22  C   UNL     1     -54.621 -40.687 -78.447  0.00  0.00    +0.000 A 
ATOM     23  C   UNL     1     -53.479 -39.956 -78.240  0.00  0.00    +0.000 A 
ATOM     24  C   UNL     1     -53.202 -38.562 -77.842  0.00  0.00    +0.000 C 
ATOM     25  O   UNL     1     -52.399 -40.753 -78.449  0.00  0.00    +0.000 OA
ATOM     26  N   UNL     1     -52.819 -42.025 -78.796  0.00  0.00    +0.000 NA
ENDBRANCH  20  21
ENDBRANCH  18  20
ENDBRANCH   2  18
TORSDOF 4
