REMARK VINA RESULT:    -6.350     15.109     16.039
REMARK INTER + INTRA:          -8.837
REMARK INTER:                  -8.053
REMARK INTRA:                  -0.784
REMARK UNBOUND:                -1.003
REMARK  Name = 
REMARK  6 active torsions:
REMARK  status: ('A' for Active; 'I' for Inactive)
REMARK    1  A    between atoms: C_1  and  C_2
REMARK    2  A    between atoms: C_2  and  C_4
REMARK    3  A    between atoms: C_5  and  S_6
REMARK    4  A    between atoms: S_6  and  C_8
REMARK    5  A    between atoms: C_8  and  C_9
REMARK    6  A    between atoms: C_11  and  C_12
REMARK                            x       y       z     vdW  Elec       q    Type
REMARK                         _______ _______ _______ _____ _____    ______ ____
ROOT
ATOM      1  C   UNL     1     -55.963 -41.718 -78.389  0.00  0.00    +0.000 A 
ATOM      2  C   UNL     1     -54.635 -41.834 -78.164  0.00  0.00    +0.000 A 
ATOM      3  N   UNL     1     -53.710 -42.012 -79.175  0.00  0.00    +0.000 N 
ATOM      4  C   UNL     1     -54.078 -42.258 -80.511  0.00  0.00    +0.000 A 
ATOM      5  C   UNL     1     -53.108 -42.512 -81.496  0.00  0.00    +0.000 A 
ATOM      6 BR   UNL     1     -51.264 -42.617 -81.044  0.00  0.00    +0.000 Br
ATOM      7  C   UNL     1     -53.466 -42.702 -82.830  0.00  0.00    +0.000 A 
ATOM      8  C   UNL     1     -54.803 -42.632 -83.196  0.00  0.00    +0.000 A 
ATOM      9  C   UNL     1     -55.792 -42.356 -82.239  0.00  0.00    +0.000 A 
ATOM     10 CL   UNL     1     -57.408 -42.312 -82.851  0.00  0.00    +0.000 Cl
ATOM     11  C   UNL     1     -55.427 -42.155 -80.892  0.00  0.00    +0.000 A 
ATOM     12  C   UNL     1     -56.414 -41.869 -79.820  0.00  0.00    +0.000 A 
ATOM     13  O   UNL     1     -57.601 -41.794 -80.090  0.00  0.00    +0.000 OA
ATOM     14  H   UNL     1     -52.822 -42.426 -78.890  0.00  0.00    +0.000 HD
ENDROOT
BRANCH   1  16
ATOM     15  C   UNL     1     -57.372 -40.089 -76.911  0.00  0.00    +0.000 C 
ATOM     16  C   UNL     1     -57.003 -41.499 -77.310  0.00  0.00    +0.000 C 
ATOM     17  O   UNL     1     -57.553 -42.444 -76.743  0.00  0.00    +0.000 OA
ENDBRANCH   1  16
BRANCH   2  18
ATOM     18  S   UNL     1     -53.962 -41.946 -76.473  0.00  0.00    +0.000 S 
ATOM     19  O   UNL     1     -54.341 -43.336 -76.036  0.00  0.00    +0.000 OA
BRANCH  18  20
ATOM     20  C   UNL     1     -52.175 -42.007 -76.856  0.00  0.00    +0.000 C 
BRANCH  20  21
ATOM     21  C   UNL     1     -51.437 -40.807 -76.354  0.00  0.00    +0.000 A 
ATOM     22  C   UNL     1     -50.192 -40.711 -75.678  0.00  0.00    +0.000 A 
ATOM     23  C   UNL     1     -50.006 -39.364 -75.476  0.00  0.00    +0.000 A 
ATOM     24  C   UNL     1     -48.975 -38.549 -74.808  0.00  0.00    +0.000 C 
ATOM     25  O   UNL     1     -51.047 -38.688 -76.031  0.00  0.00    +0.000 OA
ATOM     26  N   UNL     1     -51.941 -39.585 -76.588  0.00  0.00    +0.000 NA
ENDBRANCH  20  21
ENDBRANCH  18  20
ENDBRANCH   2  18
TORSDOF 4
