REMARK VINA RESULT:    -5.593      4.196      6.548
REMARK INTER + INTRA:          -8.170
REMARK INTER:                  -7.146
REMARK INTRA:                  -1.024
REMARK UNBOUND:                -0.942
REMARK  Name = 
REMARK  8 active torsions:
REMARK  status: ('A' for Active; 'I' for Inactive)
REMARK    1  A    between atoms: C_1  and  C_2
REMARK    2  A    between atoms: C_4  and  C_5
REMARK    3  A    between atoms: C_5  and  S_6
REMARK    4  A    between atoms: S_6  and  C_8
REMARK    5  A    between atoms: C_20  and  C_21
REMARK    6  A    between atoms: C_21  and  C_23
REMARK    7  A    between atoms: C_23  and  C_24
REMARK    8  A    between atoms: C_23  and  C_25
REMARK                            x       y       z     vdW  Elec       q    Type
REMARK                         _______ _______ _______ _____ _____    ______ ____
ROOT
ATOM      1  C   UNL     1     -58.259 -39.448 -62.305  0.00  0.00    +0.000 A 
ATOM      2  N   UNL     1     -58.088 -38.141 -61.854  0.00  0.00    +0.000 N 
ATOM      3  C   UNL     1     -57.179 -37.257 -62.473  0.00  0.00    +0.000 A 
ATOM      4  C   UNL     1     -57.261 -35.861 -62.304  0.00  0.00    +0.000 A 
ATOM      5 CL   UNL     1     -58.588 -35.151 -61.455  0.00  0.00    +0.000 Cl
ATOM      6  C   UNL     1     -56.291 -35.013 -62.839  0.00  0.00    +0.000 A 
ATOM      7  C   UNL     1     -55.223 -35.555 -63.558  0.00  0.00    +0.000 A 
ATOM      8  C   UNL     1     -55.132 -36.939 -63.749  0.00  0.00    +0.000 A 
ATOM      9 CL   UNL     1     -53.805 -37.483 -64.709  0.00  0.00    +0.000 Cl
ATOM     10  C   UNL     1     -56.103 -37.788 -63.197  0.00  0.00    +0.000 A 
ATOM     11  C   UNL     1     -56.065 -39.271 -63.267  0.00  0.00    +0.000 A 
ATOM     12  O   UNL     1     -54.983 -39.838 -63.363  0.00  0.00    +0.000 OA
ATOM     13  C   UNL     1     -57.362 -40.058 -63.130  0.00  0.00    +0.000 A 
ATOM     14  H   UNL     1     -58.954 -37.710 -61.506  0.00  0.00    +0.000 HD
ENDROOT
BRANCH   1  15
ATOM     15  S   UNL     1     -59.920 -40.094 -61.851  0.00  0.00    +0.000 S 
ATOM     16  O   UNL     1     -60.722 -38.852 -61.576  0.00  0.00    +0.000 OA
BRANCH  15  17
ATOM     17  C   UNL     1     -59.609 -40.917 -60.236  0.00  0.00    +0.000 C 
BRANCH  17  21
ATOM     18  C   UNL     1     -61.153 -45.800 -60.953  0.00  0.00    +0.000 C 
ATOM     19  C   UNL     1     -60.691 -44.455 -60.548  0.00  0.00    +0.000 A 
ATOM     20  C   UNL     1     -60.302 -43.316 -61.213  0.00  0.00    +0.000 A 
ATOM     21  C   UNL     1     -60.026 -42.366 -60.189  0.00  0.00    +0.000 A 
ATOM     22  N   UNL     1     -60.210 -42.928 -58.982  0.00  0.00    +0.000 NA
ATOM     23  O   UNL     1     -60.629 -44.224 -59.211  0.00  0.00    +0.000 OA
ENDBRANCH  17  21
ENDBRANCH  15  17
ENDBRANCH   1  15
BRANCH  13  24
ATOM     24  C   UNL     1     -57.416 -41.339 -63.938  0.00  0.00    +0.000 C 
ATOM     25  O   UNL     1     -57.499 -41.284 -65.172  0.00  0.00    +0.000 OA
BRANCH  24  26
ATOM     26  C   UNL     1     -57.525 -42.704 -63.285  0.00  0.00    +0.000 C 
ATOM     27  C   UNL     1     -57.488 -43.785 -64.350  0.00  0.00    +0.000 C 
ATOM     28  C   UNL     1     -56.480 -42.890 -62.192  0.00  0.00    +0.000 C 
ENDBRANCH  24  26
ENDBRANCH  13  24
TORSDOF 5
