REMARK VINA RESULT:    -5.907      3.685      6.915
REMARK INTER + INTRA:          -8.144
REMARK INTER:                  -7.283
REMARK INTRA:                  -0.862
REMARK UNBOUND:                -0.856
REMARK  Name = 
REMARK  6 active torsions:
REMARK  status: ('A' for Active; 'I' for Inactive)
REMARK    1  A    between atoms: C_1  and  C_2
REMARK    2  A    between atoms: C_2  and  C_4
REMARK    3  A    between atoms: C_5  and  S_6
REMARK    4  A    between atoms: S_6  and  C_8
REMARK    5  A    between atoms: C_8  and  C_9
REMARK    6  A    between atoms: C_11  and  C_12
REMARK                            x       y       z     vdW  Elec       q    Type
REMARK                         _______ _______ _______ _____ _____    ______ ____
ROOT
ATOM      1  C   UNL     1     -56.268 -42.315 -62.983  0.00  0.00    +0.000 A 
ATOM      2  C   UNL     1     -56.968 -41.594 -62.079  0.00  0.00    +0.000 A 
ATOM      3  N   UNL     1     -56.761 -41.699 -60.718  0.00  0.00    +0.000 N 
ATOM      4  C   UNL     1     -55.884 -42.636 -60.146  0.00  0.00    +0.000 A 
ATOM      5  C   UNL     1     -55.681 -42.681 -58.757  0.00  0.00    +0.000 A 
ATOM      6 BR   UNL     1     -56.639 -41.524 -57.592  0.00  0.00    +0.000 Br
ATOM      7  C   UNL     1     -54.765 -43.571 -58.191  0.00  0.00    +0.000 A 
ATOM      8  C   UNL     1     -54.043 -44.430 -59.011  0.00  0.00    +0.000 A 
ATOM      9  C   UNL     1     -54.219 -44.401 -60.397  0.00  0.00    +0.000 A 
ATOM     10 CL   UNL     1     -53.274 -45.551 -61.279  0.00  0.00    +0.000 Cl
ATOM     11  C   UNL     1     -55.119 -43.478 -60.969  0.00  0.00    +0.000 A 
ATOM     12  C   UNL     1     -55.294 -43.325 -62.432  0.00  0.00    +0.000 A 
ATOM     13  O   UNL     1     -54.645 -44.028 -63.195  0.00  0.00    +0.000 OA
ATOM     14  H   UNL     1     -57.462 -41.293 -60.103  0.00  0.00    +0.000 HD
ENDROOT
BRANCH   1  16
ATOM     15  C   UNL     1     -55.507 -41.165 -65.186  0.00  0.00    +0.000 C 
ATOM     16  C   UNL     1     -56.376 -42.177 -64.479  0.00  0.00    +0.000 C 
ATOM     17  O   UNL     1     -57.174 -42.843 -65.126  0.00  0.00    +0.000 OA
ENDBRANCH   1  16
BRANCH   2  18
ATOM     18  S   UNL     1     -58.342 -40.497 -62.597  0.00  0.00    +0.000 S 
ATOM     19  O   UNL     1     -59.568 -41.163 -62.031  0.00  0.00    +0.000 OA
BRANCH  18  20
ATOM     20  C   UNL     1     -58.016 -39.054 -61.521  0.00  0.00    +0.000 C 
BRANCH  20  21
ATOM     21  C   UNL     1     -57.264 -37.979 -62.234  0.00  0.00    +0.000 A 
ATOM     22  C   UNL     1     -56.111 -38.089 -63.053  0.00  0.00    +0.000 A 
ATOM     23  C   UNL     1     -55.885 -36.812 -63.514  0.00  0.00    +0.000 A 
ATOM     24  C   UNL     1     -54.877 -36.190 -64.396  0.00  0.00    +0.000 C 
ATOM     25  O   UNL     1     -56.843 -35.988 -63.011  0.00  0.00    +0.000 OA
ATOM     26  N   UNL     1     -57.715 -36.717 -62.217  0.00  0.00    +0.000 NA
ENDBRANCH  20  21
ENDBRANCH  18  20
ENDBRANCH   2  18
TORSDOF 4
