REMARK VINA RESULT:    -5.288     10.303     12.624
REMARK INTER + INTRA:          -7.697
REMARK INTER:                  -6.543
REMARK INTRA:                  -1.154
REMARK UNBOUND:                -0.863
REMARK  Name = 
REMARK  6 active torsions:
REMARK  status: ('A' for Active; 'I' for Inactive)
REMARK    1  A    between atoms: C_1  and  C_2
REMARK    2  A    between atoms: C_4  and  C_5
REMARK    3  A    between atoms: C_5  and  S_6
REMARK    4  A    between atoms: S_6  and  C_8
REMARK    5  A    between atoms: C_20  and  C_21
REMARK    6  A    between atoms: C_21  and  C_23
REMARK                            x       y       z     vdW  Elec       q    Type
REMARK                         _______ _______ _______ _____ _____    ______ ____
ROOT
ATOM      1  C   UNL     1     -66.262 -41.519 -70.808  0.00  0.00    +0.000 A 
ATOM      2  N   UNL     1     -65.227 -41.747 -71.735  0.00  0.00    +0.000 N 
ATOM      3  C   UNL     1     -63.884 -41.908 -71.296  0.00  0.00    +0.000 A 
ATOM      4  C   UNL     1     -62.886 -42.511 -72.084  0.00  0.00    +0.000 A 
ATOM      5 BR   UNL     1     -63.308 -43.326 -73.744  0.00  0.00    +0.000 Br
ATOM      6  C   UNL     1     -61.551 -42.550 -71.658  0.00  0.00    +0.000 A 
ATOM      7  C   UNL     1     -61.204 -42.006 -70.416  0.00  0.00    +0.000 A 
ATOM      8  C   UNL     1     -62.177 -41.405 -69.617  0.00  0.00    +0.000 A 
ATOM      9 CL   UNL     1     -61.661 -40.829 -68.072  0.00  0.00    +0.000 Cl
ATOM     10  C   UNL     1     -63.503 -41.340 -70.071  0.00  0.00    +0.000 A 
ATOM     11  C   UNL     1     -64.581 -40.650 -69.335  0.00  0.00    +0.000 A 
ATOM     12  O   UNL     1     -64.356 -39.680 -68.623  0.00  0.00    +0.000 OA
ATOM     13  C   UNL     1     -65.989 -41.122 -69.545  0.00  0.00    +0.000 A 
ATOM     14  H   UNL     1     -65.504 -42.409 -72.473  0.00  0.00    +0.000 HD
ENDROOT
BRANCH   1  15
ATOM     15  S   UNL     1     -67.843 -42.228 -71.340  0.00  0.00    +0.000 S 
ATOM     16  O   UNL     1     -67.500 -43.005 -72.582  0.00  0.00    +0.000 OA
BRANCH  15  17
ATOM     17  C   UNL     1     -68.972 -40.892 -71.829  0.00  0.00    +0.000 C 
BRANCH  17  21
ATOM     18  C   UNL     1     -70.493 -37.017 -68.847  0.00  0.00    +0.000 C 
ATOM     19  C   UNL     1     -70.219 -38.241 -69.623  0.00  0.00    +0.000 A 
ATOM     20  C   UNL     1     -69.327 -38.578 -70.613  0.00  0.00    +0.000 A 
ATOM     21  C   UNL     1     -69.552 -39.955 -70.839  0.00  0.00    +0.000 A 
ATOM     22  N   UNL     1     -70.567 -40.398 -70.078  0.00  0.00    +0.000 NA
ATOM     23  O   UNL     1     -70.980 -39.323 -69.318  0.00  0.00    +0.000 OA
ENDBRANCH  17  21
ENDBRANCH  15  17
ENDBRANCH   1  15
BRANCH  13  24
ATOM     24  C   UNL     1     -66.779 -41.230 -68.286  0.00  0.00    +0.000 C 
ATOM     25  O   UNL     1     -67.672 -40.435 -68.045  0.00  0.00    +0.000 OA
BRANCH  24  26
ATOM     26  C   UNL     1     -66.493 -42.341 -67.359  0.00  0.00    +0.000 C 
ATOM     27  C   UNL     1     -65.938 -43.634 -67.901  0.00  0.00    +0.000 C 
ATOM     28  C   UNL     1     -67.334 -43.596 -67.359  0.00  0.00    +0.000 C 
ENDBRANCH  24  26
ENDBRANCH  13  24
TORSDOF 5
