REMARK VINA RESULT:    -6.966     12.646     15.589
REMARK INTER + INTRA:          -9.919
REMARK INTER:                  -9.030
REMARK INTRA:                  -0.889
REMARK UNBOUND:                -0.917
REMARK  Name = 
REMARK  6 active torsions:
REMARK  status: ('A' for Active; 'I' for Inactive)
REMARK    1  A    between atoms: C_1  and  C_2
REMARK    2  A    between atoms: C_4  and  C_5
REMARK    3  A    between atoms: C_5  and  S_6
REMARK    4  A    between atoms: S_6  and  C_8
REMARK    5  A    between atoms: C_20  and  C_21
REMARK    6  A    between atoms: C_21  and  C_23
REMARK                            x       y       z     vdW  Elec       q    Type
REMARK                         _______ _______ _______ _____ _____    ______ ____
ROOT
ATOM      1  C   UNL     1     -55.379 -43.127 -61.300  0.00  0.00    +0.000 A 
ATOM      2  N   UNL     1     -55.107 -42.780 -59.962  0.00  0.00    +0.000 N 
ATOM      3  C   UNL     1     -56.166 -42.603 -59.031  0.00  0.00    +0.000 A 
ATOM      4  C   UNL     1     -55.978 -42.645 -57.637  0.00  0.00    +0.000 A 
ATOM      5 BR   UNL     1     -54.303 -43.126 -56.889  0.00  0.00    +0.000 Br
ATOM      6  C   UNL     1     -57.028 -42.355 -56.754  0.00  0.00    +0.000 A 
ATOM      7  C   UNL     1     -58.295 -42.046 -57.263  0.00  0.00    +0.000 A 
ATOM      8  C   UNL     1     -58.506 -42.000 -58.641  0.00  0.00    +0.000 A 
ATOM      9 CL   UNL     1     -60.120 -41.680 -59.166  0.00  0.00    +0.000 Cl
ATOM     10  C   UNL     1     -57.438 -42.256 -59.514  0.00  0.00    +0.000 A 
ATOM     11  C   UNL     1     -57.544 -42.147 -60.982  0.00  0.00    +0.000 A 
ATOM     12  O   UNL     1     -58.313 -41.358 -61.516  0.00  0.00    +0.000 OA
ATOM     13  C   UNL     1     -56.618 -42.981 -61.818  0.00  0.00    +0.000 A 
ATOM     14  H   UNL     1     -54.303 -43.298 -59.581  0.00  0.00    +0.000 HD
ENDROOT
BRANCH   1  15
ATOM     15  S   UNL     1     -54.078 -44.155 -62.031  0.00  0.00    +0.000 S 
ATOM     16  O   UNL     1     -53.151 -44.449 -60.883  0.00  0.00    +0.000 OA
BRANCH  15  17
ATOM     17  C   UNL     1     -53.145 -43.178 -63.246  0.00  0.00    +0.000 C 
BRANCH  17  21
ATOM     18  C   UNL     1     -48.947 -45.559 -64.959  0.00  0.00    +0.000 C 
ATOM     19  C   UNL     1     -50.072 -44.697 -64.552  0.00  0.00    +0.000 A 
ATOM     20  C   UNL     1     -51.289 -44.916 -63.949  0.00  0.00    +0.000 A 
ATOM     21  C   UNL     1     -51.832 -43.624 -63.767  0.00  0.00    +0.000 A 
ATOM     22  N   UNL     1     -51.018 -42.692 -64.294  0.00  0.00    +0.000 NA
ATOM     23  O   UNL     1     -49.920 -43.369 -64.782  0.00  0.00    +0.000 OA
ENDBRANCH  17  21
ENDBRANCH  15  17
ENDBRANCH   1  15
BRANCH  13  24
ATOM     24  C   UNL     1     -57.285 -43.636 -62.978  0.00  0.00    +0.000 C 
ATOM     25  O   UNL     1     -58.127 -44.500 -62.802  0.00  0.00    +0.000 OA
BRANCH  24  26
ATOM     26  C   UNL     1     -56.943 -43.188 -64.342  0.00  0.00    +0.000 C 
ATOM     27  C   UNL     1     -56.448 -41.781 -64.557  0.00  0.00    +0.000 C 
ATOM     28  C   UNL     1     -57.798 -42.179 -65.071  0.00  0.00    +0.000 C 
ENDBRANCH  24  26
ENDBRANCH  13  24
TORSDOF 5
