REMARK VINA RESULT:    -6.564      3.378      5.315
REMARK INTER + INTRA:          -9.357
REMARK INTER:                  -8.439
REMARK INTRA:                  -0.918
REMARK UNBOUND:                -0.873
REMARK  Name = 
REMARK  6 active torsions:
REMARK  status: ('A' for Active; 'I' for Inactive)
REMARK    1  A    between atoms: C_1  and  C_2
REMARK    2  A    between atoms: C_4  and  C_5
REMARK    3  A    between atoms: C_5  and  S_6
REMARK    4  A    between atoms: S_6  and  C_8
REMARK    5  A    between atoms: C_20  and  C_21
REMARK    6  A    between atoms: C_21  and  C_23
REMARK                            x       y       z     vdW  Elec       q    Type
REMARK                         _______ _______ _______ _____ _____    ______ ____
ROOT
ATOM      1  C   UNL     1     -57.611 -43.310 -77.239  0.00  0.00    +0.000 A 
ATOM      2  N   UNL     1     -57.192 -44.625 -77.521  0.00  0.00    +0.000 N 
ATOM      3  C   UNL     1     -56.100 -45.203 -76.817  0.00  0.00    +0.000 A 
ATOM      4  C   UNL     1     -55.875 -46.591 -76.754  0.00  0.00    +0.000 A 
ATOM      5 BR   UNL     1     -57.132 -47.820 -77.467  0.00  0.00    +0.000 Br
ATOM      6  C   UNL     1     -54.727 -47.113 -76.142  0.00  0.00    +0.000 A 
ATOM      7  C   UNL     1     -53.798 -46.244 -75.558  0.00  0.00    +0.000 A 
ATOM      8  C   UNL     1     -54.000 -44.864 -75.606  0.00  0.00    +0.000 A 
ATOM      9 CL   UNL     1     -52.835 -43.883 -74.794  0.00  0.00    +0.000 Cl
ATOM     10  C   UNL     1     -55.136 -44.353 -76.252  0.00  0.00    +0.000 A 
ATOM     11  C   UNL     1     -55.391 -42.910 -76.428  0.00  0.00    +0.000 A 
ATOM     12  O   UNL     1     -54.476 -42.102 -76.532  0.00  0.00    +0.000 OA
ATOM     13  C   UNL     1     -56.815 -42.458 -76.557  0.00  0.00    +0.000 A 
ATOM     14  H   UNL     1     -57.985 -45.267 -77.654  0.00  0.00    +0.000 HD
ENDROOT
BRANCH   1  15
ATOM     15  S   UNL     1     -59.394 -43.083 -77.473  0.00  0.00    +0.000 S 
ATOM     16  O   UNL     1     -59.921 -44.478 -77.670  0.00  0.00    +0.000 OA
BRANCH  15  17
ATOM     17  C   UNL     1     -59.691 -42.166 -79.013  0.00  0.00    +0.000 C 
BRANCH  17  21
ATOM     18  C   UNL     1     -61.584 -37.414 -78.787  0.00  0.00    +0.000 C 
ATOM     19  C   UNL     1     -61.208 -38.827 -78.974  0.00  0.00    +0.000 A 
ATOM     20  C   UNL     1     -60.123 -39.594 -78.620  0.00  0.00    +0.000 A 
ATOM     21  C   UNL     1     -60.462 -40.901 -79.035  0.00  0.00    +0.000 A 
ATOM     22  N   UNL     1     -61.650 -40.903 -79.664  0.00  0.00    +0.000 NA
ATOM     23  O   UNL     1     -62.112 -39.604 -79.622  0.00  0.00    +0.000 OA
ENDBRANCH  17  21
ENDBRANCH  15  17
ENDBRANCH   1  15
BRANCH  13  24
ATOM     24  C   UNL     1     -57.130 -41.237 -75.762  0.00  0.00    +0.000 C 
ATOM     25  O   UNL     1     -57.324 -40.169 -76.318  0.00  0.00    +0.000 OA
BRANCH  24  26
ATOM     26  C   UNL     1     -57.252 -41.353 -74.297  0.00  0.00    +0.000 C 
ATOM     27  C   UNL     1     -57.641 -42.676 -73.688  0.00  0.00    +0.000 C 
ATOM     28  C   UNL     1     -58.598 -41.524 -73.634  0.00  0.00    +0.000 C 
ENDBRANCH  24  26
ENDBRANCH  13  24
TORSDOF 5
