REMARK VINA RESULT:    -4.935      3.980      6.968
REMARK INTER + INTRA:          -7.060
REMARK INTER:                  -6.193
REMARK INTRA:                  -0.867
REMARK UNBOUND:                -0.971
REMARK  Name = 
REMARK  6 active torsions:
REMARK  status: ('A' for Active; 'I' for Inactive)
REMARK    1  A    between atoms: C_1  and  C_2
REMARK    2  A    between atoms: C_2  and  C_4
REMARK    3  A    between atoms: C_5  and  S_6
REMARK    4  A    between atoms: S_6  and  C_8
REMARK    5  A    between atoms: C_8  and  C_9
REMARK    6  A    between atoms: C_11  and  C_12
REMARK                            x       y       z     vdW  Elec       q    Type
REMARK                         _______ _______ _______ _____ _____    ______ ____
ROOT
ATOM      1  C   UNL     1     -54.912 -41.666 -77.294  0.00  0.00    +0.000 A 
ATOM      2  C   UNL     1     -55.059 -42.144 -78.552  0.00  0.00    +0.000 A 
ATOM      3  N   UNL     1     -56.269 -42.574 -79.066  0.00  0.00    +0.000 N 
ATOM      4  C   UNL     1     -57.411 -42.750 -78.262  0.00  0.00    +0.000 A 
ATOM      5  C   UNL     1     -58.596 -43.290 -78.796  0.00  0.00    +0.000 A 
ATOM      6 BR   UNL     1     -58.677 -43.867 -80.605  0.00  0.00    +0.000 Br
ATOM      7  C   UNL     1     -59.741 -43.428 -78.015  0.00  0.00    +0.000 A 
ATOM      8  C   UNL     1     -59.718 -43.019 -76.685  0.00  0.00    +0.000 A 
ATOM      9  C   UNL     1     -58.561 -42.453 -76.137  0.00  0.00    +0.000 A 
ATOM     10 CL   UNL     1     -58.677 -42.023 -74.465  0.00  0.00    +0.000 Cl
ATOM     11  C   UNL     1     -57.409 -42.293 -76.933  0.00  0.00    +0.000 A 
ATOM     12  C   UNL     1     -56.153 -41.666 -76.438  0.00  0.00    +0.000 A 
ATOM     13  O   UNL     1     -56.128 -41.172 -75.319  0.00  0.00    +0.000 OA
ATOM     14  H   UNL     1     -56.196 -43.227 -79.849  0.00  0.00    +0.000 HD
ENDROOT
BRANCH   1  16
ATOM     15  C   UNL     1     -52.739 -42.134 -75.924  0.00  0.00    +0.000 C 
ATOM     16  C   UNL     1     -53.610 -41.176 -76.712  0.00  0.00    +0.000 C 
ATOM     17  O   UNL     1     -53.234 -40.011 -76.855  0.00  0.00    +0.000 OA
ENDBRANCH   1  16
BRANCH   2  18
ATOM     18  S   UNL     1     -53.618 -42.433 -79.648  0.00  0.00    +0.000 S 
ATOM     19  O   UNL     1     -54.166 -43.366 -80.695  0.00  0.00    +0.000 OA
BRANCH  18  20
ATOM     20  C   UNL     1     -53.515 -40.791 -80.442  0.00  0.00    +0.000 C 
BRANCH  20  21
ATOM     21  C   UNL     1     -54.172 -40.762 -81.787  0.00  0.00    +0.000 A 
ATOM     22  C   UNL     1     -55.508 -40.431 -82.135  0.00  0.00    +0.000 A 
ATOM     23  C   UNL     1     -55.527 -40.448 -83.509  0.00  0.00    +0.000 A 
ATOM     24  C   UNL     1     -56.547 -40.175 -84.541  0.00  0.00    +0.000 C 
ATOM     25  O   UNL     1     -54.286 -40.784 -83.961  0.00  0.00    +0.000 OA
ATOM     26  N   UNL     1     -53.435 -40.973 -82.887  0.00  0.00    +0.000 NA
ENDBRANCH  20  21
ENDBRANCH  18  20
ENDBRANCH   2  18
TORSDOF 4
