REMARK VINA RESULT:    -5.433     26.769     28.703
REMARK INTER + INTRA:          -7.350
REMARK INTER:                  -7.156
REMARK INTRA:                  -0.194
REMARK UNBOUND:                -0.647
REMARK  Name = 
REMARK  6 active torsions:
REMARK  status: ('A' for Active; 'I' for Inactive)
REMARK    1  A    between atoms: C_1  and  C_2
REMARK    2  A    between atoms: C_2  and  C_4
REMARK    3  A    between atoms: C_5  and  S_6
REMARK    4  A    between atoms: S_6  and  C_8
REMARK    5  A    between atoms: C_8  and  C_9
REMARK    6  A    between atoms: C_11  and  C_12
REMARK                            x       y       z     vdW  Elec       q    Type
REMARK                         _______ _______ _______ _____ _____    ______ ____
ROOT
ATOM      1  C   UNL     1     -66.395 -52.222 -53.077  0.00  0.00    +0.000 A 
ATOM      2  C   UNL     1     -67.239 -52.207 -54.158  0.00  0.00    +0.000 A 
ATOM      3  N   UNL     1     -67.256 -51.153 -55.033  0.00  0.00    +0.000 N 
ATOM      4  C   UNL     1     -66.567 -49.952 -54.829  0.00  0.00    +0.000 A 
ATOM      5  C   UNL     1     -66.798 -48.843 -55.670  0.00  0.00    +0.000 A 
ATOM      6 BR   UNL     1     -68.078 -48.918 -57.075  0.00  0.00    +0.000 Br
ATOM      7  C   UNL     1     -66.096 -47.656 -55.489  0.00  0.00    +0.000 A 
ATOM      8  C   UNL     1     -65.170 -47.561 -54.453  0.00  0.00    +0.000 A 
ATOM      9  C   UNL     1     -64.946 -48.645 -53.596  0.00  0.00    +0.000 A 
ATOM     10 CL   UNL     1     -63.804 -48.372 -52.327  0.00  0.00    +0.000 Cl
ATOM     11  C   UNL     1     -65.646 -49.849 -53.793  0.00  0.00    +0.000 A 
ATOM     12  C   UNL     1     -65.428 -51.067 -52.988  0.00  0.00    +0.000 A 
ATOM     13  O   UNL     1     -64.431 -51.146 -52.280  0.00  0.00    +0.000 OA
ATOM     14  H   UNL     1     -67.932 -51.190 -55.797  0.00  0.00    +0.000 HD
ENDROOT
BRANCH   1  16
ATOM     15  C   UNL     1     -67.124 -53.010 -50.694  0.00  0.00    +0.000 C 
ATOM     16  C   UNL     1     -66.331 -53.252 -51.980  0.00  0.00    +0.000 C 
ATOM     17  O   UNL     1     -65.670 -54.258 -52.110  0.00  0.00    +0.000 OA
ENDBRANCH   1  16
BRANCH   2  18
ATOM     18  S   UNL     1     -68.553 -53.459 -54.472  0.00  0.00    +0.000 S 
ATOM     19  O   UNL     1     -67.912 -54.755 -54.018  0.00  0.00    +0.000 OA
BRANCH  18  20
ATOM     20  C   UNL     1     -69.766 -53.046 -53.143  0.00  0.00    +0.000 C 
BRANCH  20  21
ATOM     21  C   UNL     1     -71.173 -53.490 -53.381  0.00  0.00    +0.000 A 
ATOM     22  C   UNL     1     -71.756 -54.214 -54.449  0.00  0.00    +0.000 A 
ATOM     23  C   UNL     1     -73.071 -54.376 -54.073  0.00  0.00    +0.000 A 
ATOM     24  C   UNL     1     -74.234 -55.040 -54.680  0.00  0.00    +0.000 C 
ATOM     25  O   UNL     1     -73.272 -53.785 -52.868  0.00  0.00    +0.000 OA
ATOM     26  N   UNL     1     -72.085 -53.238 -52.426  0.00  0.00    +0.000 NA
ENDBRANCH  20  21
ENDBRANCH  18  20
ENDBRANCH   2  18
TORSDOF 4
