REMARK VINA RESULT:    -6.534      2.978      5.923
REMARK INTER + INTRA:          -9.294
REMARK INTER:                  -8.123
REMARK INTRA:                  -1.171
REMARK UNBOUND:                -0.850
REMARK  Name = 
REMARK  6 active torsions:
REMARK  status: ('A' for Active; 'I' for Inactive)
REMARK    1  A    between atoms: C_1  and  C_2
REMARK    2  A    between atoms: C_4  and  C_5
REMARK    3  A    between atoms: C_5  and  S_6
REMARK    4  A    between atoms: S_6  and  C_8
REMARK    5  A    between atoms: C_20  and  C_21
REMARK    6  A    between atoms: C_21  and  C_23
REMARK                            x       y       z     vdW  Elec       q    Type
REMARK                         _______ _______ _______ _____ _____    ______ ____
ROOT
ATOM      1  C   UNL     1     -55.014 -43.277 -77.944  0.00  0.00    +0.000 A 
ATOM      2  N   UNL     1     -55.299 -44.196 -78.972  0.00  0.00    +0.000 N 
ATOM      3  C   UNL     1     -55.711 -45.521 -78.665  0.00  0.00    +0.000 A 
ATOM      4  C   UNL     1     -56.374 -46.353 -79.586  0.00  0.00    +0.000 A 
ATOM      5 BR   UNL     1     -56.934 -45.693 -81.274  0.00  0.00    +0.000 Br
ATOM      6  C   UNL     1     -56.663 -47.690 -79.279  0.00  0.00    +0.000 A 
ATOM      7  C   UNL     1     -56.314 -48.204 -78.025  0.00  0.00    +0.000 A 
ATOM      8  C   UNL     1     -55.658 -47.398 -77.094  0.00  0.00    +0.000 A 
ATOM      9 CL   UNL     1     -55.335 -48.104 -75.552  0.00  0.00    +0.000 Cl
ATOM     10  C   UNL     1     -55.342 -46.072 -77.427  0.00  0.00    +0.000 A 
ATOM     11  C   UNL     1     -54.575 -45.173 -76.543  0.00  0.00    +0.000 A 
ATOM     12  O   UNL     1     -53.732 -45.599 -75.764  0.00  0.00    +0.000 OA
ATOM     13  C   UNL     1     -54.800 -43.696 -76.677  0.00  0.00    +0.000 A 
ATOM     14  H   UNL     1     -55.829 -43.766 -79.743  0.00  0.00    +0.000 HD
ENDROOT
BRANCH   1  15
ATOM     15  S   UNL     1     -55.410 -41.570 -78.405  0.00  0.00    +0.000 S 
ATOM     16  O   UNL     1     -56.121 -41.699 -79.725  0.00  0.00    +0.000 OA
BRANCH  15  17
ATOM     17  C   UNL     1     -53.872 -40.650 -78.704  0.00  0.00    +0.000 C 
BRANCH  17  21
ATOM     18  C   UNL     1     -49.936 -40.928 -75.441  0.00  0.00    +0.000 C 
ATOM     19  C   UNL     1     -51.086 -40.644 -76.320  0.00  0.00    +0.000 A 
ATOM     20  C   UNL     1     -51.765 -41.353 -77.283  0.00  0.00    +0.000 A 
ATOM     21  C   UNL     1     -52.831 -40.506 -77.661  0.00  0.00    +0.000 A 
ATOM     22  N   UNL     1     -52.753 -39.331 -77.012  0.00  0.00    +0.000 NA
ATOM     23  O   UNL     1     -51.661 -39.424 -76.174  0.00  0.00    +0.000 OA
ENDBRANCH  17  21
ENDBRANCH  15  17
ENDBRANCH   1  15
BRANCH  13  24
ATOM     24  C   UNL     1     -54.917 -42.986 -75.371  0.00  0.00    +0.000 C 
ATOM     25  O   UNL     1     -53.967 -42.377 -74.910  0.00  0.00    +0.000 OA
BRANCH  24  26
ATOM     26  C   UNL     1     -56.215 -42.995 -74.671  0.00  0.00    +0.000 C 
ATOM     27  C   UNL     1     -57.483 -43.184 -75.462  0.00  0.00    +0.000 C 
ATOM     28  C   UNL     1     -57.196 -41.858 -74.827  0.00  0.00    +0.000 C 
ENDBRANCH  24  26
ENDBRANCH  13  24
TORSDOF 5
