REMARK VINA RESULT:    -5.548      5.503      7.579
REMARK INTER + INTRA:          -7.853
REMARK INTER:                  -7.046
REMARK INTRA:                  -0.807
REMARK UNBOUND:                -0.684
REMARK  Name = 
REMARK  8 active torsions:
REMARK  status: ('A' for Active; 'I' for Inactive)
REMARK    1  A    between atoms: C_1  and  C_2
REMARK    2  A    between atoms: C_4  and  C_5
REMARK    3  A    between atoms: C_5  and  S_6
REMARK    4  A    between atoms: S_6  and  C_8
REMARK    5  A    between atoms: C_20  and  C_21
REMARK    6  A    between atoms: C_21  and  C_23
REMARK    7  A    between atoms: C_23  and  C_24
REMARK    8  A    between atoms: C_23  and  C_25
REMARK                            x       y       z     vdW  Elec       q    Type
REMARK                         _______ _______ _______ _____ _____    ______ ____
ROOT
ATOM      1  C   UNL     1     -57.010 -38.060 -62.335  0.00  0.00    +0.000 A 
ATOM      2  N   UNL     1     -57.415 -39.149 -63.101  0.00  0.00    +0.000 N 
ATOM      3  C   UNL     1     -56.483 -40.011 -63.711  0.00  0.00    +0.000 A 
ATOM      4  C   UNL     1     -56.824 -41.313 -64.122  0.00  0.00    +0.000 A 
ATOM      5 BR   UNL     1     -58.528 -42.046 -63.727  0.00  0.00    +0.000 Br
ATOM      6  C   UNL     1     -55.902 -42.119 -64.795  0.00  0.00    +0.000 A 
ATOM      7  C   UNL     1     -54.624 -41.637 -65.063  0.00  0.00    +0.000 A 
ATOM      8  C   UNL     1     -54.260 -40.341 -64.655  0.00  0.00    +0.000 A 
ATOM      9 CL   UNL     1     -52.628 -39.881 -64.979  0.00  0.00    +0.000 Cl
ATOM     10  C   UNL     1     -55.193 -39.525 -63.981  0.00  0.00    +0.000 A 
ATOM     11  C   UNL     1     -54.919 -38.134 -63.539  0.00  0.00    +0.000 A 
ATOM     12  O   UNL     1     -54.046 -37.473 -64.094  0.00  0.00    +0.000 OA
ATOM     13  C   UNL     1     -55.757 -37.551 -62.404  0.00  0.00    +0.000 A 
ATOM     14  H   UNL     1     -58.289 -39.586 -62.776  0.00  0.00    +0.000 HD
ENDROOT
BRANCH   1  15
ATOM     15  S   UNL     1     -58.292 -37.583 -61.115  0.00  0.00    +0.000 S 
ATOM     16  O   UNL     1     -59.016 -38.871 -60.832  0.00  0.00    +0.000 OA
BRANCH  15  17
ATOM     17  C   UNL     1     -59.399 -36.495 -62.074  0.00  0.00    +0.000 C 
BRANCH  17  21
ATOM     18  C   UNL     1     -63.855 -34.866 -60.002  0.00  0.00    +0.000 C 
ATOM     19  C   UNL     1     -62.490 -35.241 -60.432  0.00  0.00    +0.000 A 
ATOM     20  C   UNL     1     -61.965 -36.028 -61.431  0.00  0.00    +0.000 A 
ATOM     21  C   UNL     1     -60.552 -35.919 -61.285  0.00  0.00    +0.000 A 
ATOM     22  N   UNL     1     -60.262 -35.126 -60.239  0.00  0.00    +0.000 NA
ATOM     23  O   UNL     1     -61.469 -34.705 -59.715  0.00  0.00    +0.000 OA
ENDBRANCH  17  21
ENDBRANCH  15  17
ENDBRANCH   1  15
BRANCH  13  24
ATOM     24  C   UNL     1     -55.078 -36.539 -61.509  0.00  0.00    +0.000 C 
ATOM     25  O   UNL     1     -54.492 -36.907 -60.492  0.00  0.00    +0.000 OA
BRANCH  24  26
ATOM     26  C   UNL     1     -55.171 -35.045 -61.822  0.00  0.00    +0.000 C 
ATOM     27  C   UNL     1     -53.806 -34.452 -62.164  0.00  0.00    +0.000 C 
ATOM     28  C   UNL     1     -56.171 -34.757 -62.945  0.00  0.00    +0.000 C 
ENDBRANCH  24  26
ENDBRANCH  13  24
TORSDOF 5
