REMARK VINA RESULT:    -5.076      4.504      5.355
REMARK INTER + INTRA:          -7.266
REMARK INTER:                  -6.443
REMARK INTRA:                  -0.823
REMARK UNBOUND:                -1.003
REMARK  Name = 
REMARK  6 active torsions:
REMARK  status: ('A' for Active; 'I' for Inactive)
REMARK    1  A    between atoms: C_1  and  C_2
REMARK    2  A    between atoms: C_2  and  C_4
REMARK    3  A    between atoms: C_5  and  S_6
REMARK    4  A    between atoms: S_6  and  C_8
REMARK    5  A    between atoms: C_8  and  C_9
REMARK    6  A    between atoms: C_11  and  C_12
REMARK                            x       y       z     vdW  Elec       q    Type
REMARK                         _______ _______ _______ _____ _____    ______ ____
ROOT
ATOM      1  C   UNL     1     -58.991 -39.604 -62.256  0.00  0.00    +0.000 A 
ATOM      2  C   UNL     1     -58.101 -38.590 -62.167  0.00  0.00    +0.000 A 
ATOM      3  N   UNL     1     -56.900 -38.576 -62.850  0.00  0.00    +0.000 N 
ATOM      4  C   UNL     1     -56.417 -39.688 -63.565  0.00  0.00    +0.000 A 
ATOM      5  C   UNL     1     -55.153 -39.661 -64.180  0.00  0.00    +0.000 A 
ATOM      6 BR   UNL     1     -54.012 -38.151 -63.999  0.00  0.00    +0.000 Br
ATOM      7  C   UNL     1     -54.695 -40.740 -64.934  0.00  0.00    +0.000 A 
ATOM      8  C   UNL     1     -55.501 -41.859 -65.089  0.00  0.00    +0.000 A 
ATOM      9  C   UNL     1     -56.777 -41.905 -64.506  0.00  0.00    +0.000 A 
ATOM     10 CL   UNL     1     -57.653 -43.370 -64.781  0.00  0.00    +0.000 Cl
ATOM     11  C   UNL     1     -57.243 -40.810 -63.750  0.00  0.00    +0.000 A 
ATOM     12  C   UNL     1     -58.575 -40.786 -63.095  0.00  0.00    +0.000 A 
ATOM     13  O   UNL     1     -59.323 -41.743 -63.202  0.00  0.00    +0.000 OA
ATOM     14  H   UNL     1     -56.179 -37.970 -62.457  0.00  0.00    +0.000 HD
ENDROOT
BRANCH   1  16
ATOM     15  C   UNL     1     -61.545 -39.059 -62.218  0.00  0.00    +0.000 C 
ATOM     16  C   UNL     1     -60.327 -39.644 -61.542  0.00  0.00    +0.000 C 
ATOM     17  O   UNL     1     -60.443 -40.135 -60.419  0.00  0.00    +0.000 OA
ENDBRANCH   1  16
BRANCH   2  18
ATOM     18  S   UNL     1     -58.334 -37.221 -60.985  0.00  0.00    +0.000 S 
ATOM     19  O   UNL     1     -56.929 -36.862 -60.583  0.00  0.00    +0.000 OA
BRANCH  18  20
ATOM     20  C   UNL     1     -58.879 -35.909 -62.138  0.00  0.00    +0.000 C 
BRANCH  20  21
ATOM     21  C   UNL     1     -60.277 -35.450 -61.868  0.00  0.00    +0.000 A 
ATOM     22  C   UNL     1     -61.137 -35.722 -60.771  0.00  0.00    +0.000 A 
ATOM     23  C   UNL     1     -62.289 -35.026 -61.048  0.00  0.00    +0.000 A 
ATOM     24  C   UNL     1     -63.600 -34.886 -60.387  0.00  0.00    +0.000 C 
ATOM     25  O   UNL     1     -62.122 -34.345 -62.212  0.00  0.00    +0.000 OA
ATOM     26  N   UNL     1     -60.863 -34.601 -62.725  0.00  0.00    +0.000 NA
ENDBRANCH  20  21
ENDBRANCH  18  20
ENDBRANCH   2  18
TORSDOF 4
