REMARK VINA RESULT:    -5.941      3.948      5.688
REMARK INTER + INTRA:          -8.617
REMARK INTER:                  -7.820
REMARK INTRA:                  -0.797
REMARK UNBOUND:                -0.940
REMARK  Name = 
REMARK  6 active torsions:
REMARK  status: ('A' for Active; 'I' for Inactive)
REMARK    1  A    between atoms: C_1  and  C_2
REMARK    2  A    between atoms: C_4  and  C_5
REMARK    3  A    between atoms: C_5  and  S_6
REMARK    4  A    between atoms: S_6  and  C_8
REMARK    5  A    between atoms: C_20  and  C_21
REMARK    6  A    between atoms: C_21  and  C_23
REMARK                            x       y       z     vdW  Elec       q    Type
REMARK                         _______ _______ _______ _____ _____    ______ ____
ROOT
ATOM      1  C   UNL     1     -56.690 -37.826 -62.514  0.00  0.00    +0.000 A 
ATOM      2  N   UNL     1     -56.990 -39.069 -63.103  0.00  0.00    +0.000 N 
ATOM      3  C   UNL     1     -55.960 -39.866 -63.674  0.00  0.00    +0.000 A 
ATOM      4  C   UNL     1     -56.102 -41.245 -63.919  0.00  0.00    +0.000 A 
ATOM      5 BR   UNL     1     -57.638 -42.190 -63.331  0.00  0.00    +0.000 Br
ATOM      6  C   UNL     1     -55.103 -41.971 -64.584  0.00  0.00    +0.000 A 
ATOM      7  C   UNL     1     -53.931 -41.323 -64.989  0.00  0.00    +0.000 A 
ATOM      8  C   UNL     1     -53.766 -39.957 -64.755  0.00  0.00    +0.000 A 
ATOM      9 CL   UNL     1     -52.255 -39.269 -65.229  0.00  0.00    +0.000 Cl
ATOM     10  C   UNL     1     -54.788 -39.235 -64.121  0.00  0.00    +0.000 A 
ATOM     11  C   UNL     1     -54.741 -37.776 -63.909  0.00  0.00    +0.000 A 
ATOM     12  O   UNL     1     -54.147 -37.031 -64.679  0.00  0.00    +0.000 OA
ATOM     13  C   UNL     1     -55.513 -37.207 -62.756  0.00  0.00    +0.000 A 
ATOM     14  H   UNL     1     -57.672 -39.607 -62.552  0.00  0.00    +0.000 HD
ENDROOT
BRANCH   1  15
ATOM     15  S   UNL     1     -57.792 -37.427 -61.132  0.00  0.00    +0.000 S 
ATOM     16  O   UNL     1     -57.983 -38.739 -60.421  0.00  0.00    +0.000 OA
BRANCH  15  17
ATOM     17  C   UNL     1     -59.413 -36.917 -61.776  0.00  0.00    +0.000 C 
BRANCH  17  21
ATOM     18  C   UNL     1     -59.434 -32.095 -63.498  0.00  0.00    +0.000 C 
ATOM     19  C   UNL     1     -59.640 -33.477 -63.027  0.00  0.00    +0.000 A 
ATOM     20  C   UNL     1     -58.807 -34.509 -62.665  0.00  0.00    +0.000 A 
ATOM     21  C   UNL     1     -59.677 -35.530 -62.222  0.00  0.00    +0.000 A 
ATOM     22  N   UNL     1     -60.959 -35.155 -62.376  0.00  0.00    +0.000 NA
ATOM     23  O   UNL     1     -60.930 -33.871 -62.879  0.00  0.00    +0.000 OA
ENDBRANCH  17  21
ENDBRANCH  15  17
ENDBRANCH   1  15
BRANCH  13  24
ATOM     24  C   UNL     1     -54.764 -36.177 -61.982  0.00  0.00    +0.000 C 
ATOM     25  O   UNL     1     -54.099 -36.494 -61.011  0.00  0.00    +0.000 OA
BRANCH  24  26
ATOM     26  C   UNL     1     -54.802 -34.775 -62.440  0.00  0.00    +0.000 C 
ATOM     27  C   UNL     1     -53.967 -33.741 -61.731  0.00  0.00    +0.000 C 
ATOM     28  C   UNL     1     -55.460 -33.699 -61.610  0.00  0.00    +0.000 C 
ENDBRANCH  24  26
ENDBRANCH  13  24
TORSDOF 5
