REMARK VINA RESULT:    -5.967      2.165      2.440
REMARK INTER + INTRA:          -8.204
REMARK INTER:                  -7.358
REMARK INTRA:                  -0.846
REMARK UNBOUND:                -0.841
REMARK  Name = 
REMARK  6 active torsions:
REMARK  status: ('A' for Active; 'I' for Inactive)
REMARK    1  A    between atoms: C_1  and  C_2
REMARK    2  A    between atoms: C_2  and  C_4
REMARK    3  A    between atoms: C_5  and  S_6
REMARK    4  A    between atoms: S_6  and  C_8
REMARK    5  A    between atoms: C_8  and  C_9
REMARK    6  A    between atoms: C_11  and  C_12
REMARK                            x       y       z     vdW  Elec       q    Type
REMARK                         _______ _______ _______ _____ _____    ______ ____
ROOT
ATOM      1  C   UNL     1     -58.072 -39.779 -62.344  0.00  0.00    +0.000 A 
ATOM      2  C   UNL     1     -57.209 -40.695 -62.836  0.00  0.00    +0.000 A 
ATOM      3  N   UNL     1     -55.980 -40.372 -63.379  0.00  0.00    +0.000 N 
ATOM      4  C   UNL     1     -55.573 -39.048 -63.604  0.00  0.00    +0.000 A 
ATOM      5  C   UNL     1     -54.326 -38.771 -64.199  0.00  0.00    +0.000 A 
ATOM      6 BR   UNL     1     -53.189 -40.175 -64.783  0.00  0.00    +0.000 Br
ATOM      7  C   UNL     1     -53.894 -37.461 -64.380  0.00  0.00    +0.000 A 
ATOM      8  C   UNL     1     -54.700 -36.406 -63.956  0.00  0.00    +0.000 A 
ATOM      9  C   UNL     1     -55.931 -36.658 -63.339  0.00  0.00    +0.000 A 
ATOM     10 CL   UNL     1     -56.820 -35.247 -62.879  0.00  0.00    +0.000 Cl
ATOM     11  C   UNL     1     -56.365 -37.984 -63.141  0.00  0.00    +0.000 A 
ATOM     12  C   UNL     1     -57.658 -38.336 -62.483  0.00  0.00    +0.000 A 
ATOM     13  O   UNL     1     -58.407 -37.449 -62.091  0.00  0.00    +0.000 OA
ATOM     14  H   UNL     1     -55.593 -41.064 -64.024  0.00  0.00    +0.000 HD
ENDROOT
BRANCH   1  16
ATOM     15  C   UNL     1     -59.468 -40.418 -60.239  0.00  0.00    +0.000 C 
ATOM     16  C   UNL     1     -59.402 -40.111 -61.719  0.00  0.00    +0.000 C 
ATOM     17  O   UNL     1     -60.438 -40.140 -62.379  0.00  0.00    +0.000 OA
ENDBRANCH   1  16
BRANCH   2  18
ATOM     18  S   UNL     1     -57.668 -42.454 -62.975  0.00  0.00    +0.000 S 
ATOM     19  O   UNL     1     -58.518 -42.494 -64.217  0.00  0.00    +0.000 OA
BRANCH  18  20
ATOM     20  C   UNL     1     -56.043 -43.145 -63.454  0.00  0.00    +0.000 C 
BRANCH  20  21
ATOM     21  C   UNL     1     -55.247 -43.595 -62.273  0.00  0.00    +0.000 A 
ATOM     22  C   UNL     1     -55.470 -43.388 -60.886  0.00  0.00    +0.000 A 
ATOM     23  C   UNL     1     -54.422 -44.025 -60.268  0.00  0.00    +0.000 A 
ATOM     24  C   UNL     1     -53.984 -44.175 -58.869  0.00  0.00    +0.000 C 
ATOM     25  O   UNL     1     -53.646 -44.620 -61.211  0.00  0.00    +0.000 OA
ATOM     26  N   UNL     1     -54.162 -44.361 -62.468  0.00  0.00    +0.000 NA
ENDBRANCH  20  21
ENDBRANCH  18  20
ENDBRANCH   2  18
TORSDOF 4
