REMARK VINA RESULT:    -6.062     13.470     16.560
REMARK INTER + INTRA:          -8.469
REMARK INTER:                  -7.645
REMARK INTRA:                  -0.824
REMARK UNBOUND:                -0.635
REMARK  Name = 
REMARK  6 active torsions:
REMARK  status: ('A' for Active; 'I' for Inactive)
REMARK    1  A    between atoms: C_1  and  C_2
REMARK    2  A    between atoms: C_4  and  C_5
REMARK    3  A    between atoms: C_5  and  S_6
REMARK    4  A    between atoms: S_6  and  C_8
REMARK    5  A    between atoms: C_20  and  C_21
REMARK    6  A    between atoms: C_21  and  C_23
REMARK                            x       y       z     vdW  Elec       q    Type
REMARK                         _______ _______ _______ _____ _____    ______ ____
ROOT
ATOM      1  C   UNL     1     -66.590 -49.314 -54.451  0.00  0.00    +0.000 A 
ATOM      2  N   UNL     1     -67.288 -50.255 -55.234  0.00  0.00    +0.000 N 
ATOM      3  C   UNL     1     -67.589 -51.545 -54.717  0.00  0.00    +0.000 A 
ATOM      4  C   UNL     1     -68.588 -52.375 -55.258  0.00  0.00    +0.000 A 
ATOM      5 BR   UNL     1     -69.745 -51.751 -56.626  0.00  0.00    +0.000 Br
ATOM      6  C   UNL     1     -68.778 -53.683 -54.789  0.00  0.00    +0.000 A 
ATOM      7  C   UNL     1     -67.980 -54.166 -53.745  0.00  0.00    +0.000 A 
ATOM      8  C   UNL     1     -66.985 -53.361 -53.192  0.00  0.00    +0.000 A 
ATOM      9 CL   UNL     1     -66.105 -54.025 -51.862  0.00  0.00    +0.000 Cl
ATOM     10  C   UNL     1     -66.781 -52.067 -53.694  0.00  0.00    +0.000 A 
ATOM     11  C   UNL     1     -65.699 -51.177 -53.231  0.00  0.00    +0.000 A 
ATOM     12  O   UNL     1     -64.632 -51.617 -52.823  0.00  0.00    +0.000 OA
ATOM     13  C   UNL     1     -65.909 -49.696 -53.348  0.00  0.00    +0.000 A 
ATOM     14  H   UNL     1     -68.064 -49.827 -55.757  0.00  0.00    +0.000 HD
ENDROOT
BRANCH   1  15
ATOM     15  S   UNL     1     -67.079 -47.608 -54.814  0.00  0.00    +0.000 S 
ATOM     16  O   UNL     1     -68.572 -47.603 -54.625  0.00  0.00    +0.000 OA
BRANCH  15  17
ATOM     17  C   UNL     1     -66.751 -47.242 -56.563  0.00  0.00    +0.000 C 
BRANCH  17  21
ATOM     18  C   UNL     1     -62.413 -46.312 -59.120  0.00  0.00    +0.000 C 
ATOM     19  C   UNL     1     -63.546 -46.554 -58.207  0.00  0.00    +0.000 A 
ATOM     20  C   UNL     1     -64.896 -46.755 -58.373  0.00  0.00    +0.000 A 
ATOM     21  C   UNL     1     -65.378 -47.021 -57.072  0.00  0.00    +0.000 A 
ATOM     22  N   UNL     1     -64.386 -46.914 -56.171  0.00  0.00    +0.000 NA
ATOM     23  O   UNL     1     -63.243 -46.624 -56.886  0.00  0.00    +0.000 OA
ENDBRANCH  17  21
ENDBRANCH  15  17
ENDBRANCH   1  15
BRANCH  13  24
ATOM     24  C   UNL     1     -65.479 -48.933 -52.142  0.00  0.00    +0.000 C 
ATOM     25  O   UNL     1     -66.214 -48.838 -51.174  0.00  0.00    +0.000 OA
BRANCH  24  26
ATOM     26  C   UNL     1     -64.131 -48.335 -52.122  0.00  0.00    +0.000 C 
ATOM     27  C   UNL     1     -63.797 -47.293 -51.086  0.00  0.00    +0.000 C 
ATOM     28  C   UNL     1     -63.905 -46.898 -52.527  0.00  0.00    +0.000 C 
ENDBRANCH  24  26
ENDBRANCH  13  24
TORSDOF 5
