REMARK VINA RESULT:    -5.782      3.204      4.604
REMARK INTER + INTRA:          -8.526
REMARK INTER:                  -7.716
REMARK INTRA:                  -0.810
REMARK UNBOUND:                -1.054
REMARK  Name = 
REMARK  8 active torsions:
REMARK  status: ('A' for Active; 'I' for Inactive)
REMARK    1  A    between atoms: C_1  and  C_2
REMARK    2  A    between atoms: C_4  and  C_5
REMARK    3  A    between atoms: C_5  and  S_6
REMARK    4  A    between atoms: S_6  and  C_8
REMARK    5  A    between atoms: C_20  and  C_21
REMARK    6  A    between atoms: C_21  and  C_23
REMARK    7  A    between atoms: C_23  and  C_24
REMARK    8  A    between atoms: C_23  and  C_25
REMARK                            x       y       z     vdW  Elec       q    Type
REMARK                         _______ _______ _______ _____ _____    ______ ____
ROOT
ATOM      1  C   UNL     1     -57.063 -41.597 -78.338  0.00  0.00    +0.000 A 
ATOM      2  N   UNL     1     -56.146 -41.174 -79.295  0.00  0.00    +0.000 N 
ATOM      3  C   UNL     1     -54.775 -41.477 -79.190  0.00  0.00    +0.000 A 
ATOM      4  C   UNL     1     -53.911 -41.440 -80.302  0.00  0.00    +0.000 A 
ATOM      5 BR   UNL     1     -54.584 -41.134 -82.049  0.00  0.00    +0.000 Br
ATOM      6  C   UNL     1     -52.540 -41.669 -80.155  0.00  0.00    +0.000 A 
ATOM      7  C   UNL     1     -52.013 -41.944 -78.897  0.00  0.00    +0.000 A 
ATOM      8  C   UNL     1     -52.859 -41.994 -77.774  0.00  0.00    +0.000 A 
ATOM      9 CL   UNL     1     -52.102 -42.414 -76.281  0.00  0.00    +0.000 Cl
ATOM     10  C   UNL     1     -54.241 -41.755 -77.921  0.00  0.00    +0.000 A 
ATOM     11  C   UNL     1     -55.212 -41.752 -76.796  0.00  0.00    +0.000 A 
ATOM     12  O   UNL     1     -54.826 -41.532 -75.652  0.00  0.00    +0.000 OA
ATOM     13  C   UNL     1     -56.685 -42.006 -77.103  0.00  0.00    +0.000 A 
ATOM     14  H   UNL     1     -56.528 -41.135 -80.250  0.00  0.00    +0.000 HD
ENDROOT
BRANCH   1  15
ATOM     15  S   UNL     1     -58.752 -41.728 -79.037  0.00  0.00    +0.000 S 
ATOM     16  O   UNL     1     -58.550 -41.494 -80.509  0.00  0.00    +0.000 OA
BRANCH  15  17
ATOM     17  C   UNL     1     -59.610 -40.280 -78.333  0.00  0.00    +0.000 C 
BRANCH  17  21
ATOM     18  C   UNL     1     -63.089 -37.654 -81.126  0.00  0.00    +0.000 C 
ATOM     19  C   UNL     1     -62.206 -38.573 -80.375  0.00  0.00    +0.000 A 
ATOM     20  C   UNL     1     -61.001 -38.449 -79.722  0.00  0.00    +0.000 A 
ATOM     21  C   UNL     1     -60.736 -39.742 -79.185  0.00  0.00    +0.000 A 
ATOM     22  N   UNL     1     -61.725 -40.587 -79.524  0.00  0.00    +0.000 NA
ATOM     23  O   UNL     1     -62.637 -39.855 -80.260  0.00  0.00    +0.000 OA
ENDBRANCH  17  21
ENDBRANCH  15  17
ENDBRANCH   1  15
BRANCH  13  24
ATOM     24  C   UNL     1     -57.493 -42.698 -76.029  0.00  0.00    +0.000 C 
ATOM     25  O   UNL     1     -57.491 -43.926 -75.947  0.00  0.00    +0.000 OA
BRANCH  24  26
ATOM     26  C   UNL     1     -58.372 -41.885 -75.078  0.00  0.00    +0.000 C 
ATOM     27  C   UNL     1     -58.425 -42.507 -73.685  0.00  0.00    +0.000 C 
ATOM     28  C   UNL     1     -57.920 -40.424 -74.990  0.00  0.00    +0.000 C 
ENDBRANCH  24  26
ENDBRANCH  13  24
TORSDOF 5
