MODEL 1
REMARK VINA RESULT:    -6.856      0.000      0.000
REMARK INTER + INTRA:          -9.425
REMARK INTER:                  -8.460
REMARK INTRA:                  -0.965
REMARK UNBOUND:                -0.965
REMARK  Name = 
REMARK  6 active torsions:
REMARK  status: ('A' for Active; 'I' for Inactive)
REMARK    1  A    between atoms: C_1  and  C_2
REMARK    2  A    between atoms: C_2  and  C_4
REMARK    3  A    between atoms: C_5  and  S_6
REMARK    4  A    between atoms: S_6  and  C_8
REMARK    5  A    between atoms: C_8  and  C_9
REMARK    6  A    between atoms: C_11  and  C_12
REMARK                            x       y       z     vdW  Elec       q    Type
REMARK                         _______ _______ _______ _____ _____    ______ ____
ROOT
ATOM      1  C   UNL     1     -55.944 -42.471 -62.749  0.00  0.00    +0.000 A 
ATOM      2  C   UNL     1     -55.632 -41.302 -63.355  0.00  0.00    +0.000 A 
ATOM      3  N   UNL     1     -54.414 -41.060 -63.955  0.00  0.00    +0.000 N 
ATOM      4  C   UNL     1     -53.335 -41.956 -63.877  0.00  0.00    +0.000 A 
ATOM      5  C   UNL     1     -52.108 -41.658 -64.503  0.00  0.00    +0.000 A 
ATOM      6 BR   UNL     1     -51.849 -40.011 -65.415  0.00  0.00    +0.000 Br
ATOM      7  C   UNL     1     -51.049 -42.564 -64.474  0.00  0.00    +0.000 A 
ATOM      8  C   UNL     1     -51.206 -43.781 -63.821  0.00  0.00    +0.000 A 
ATOM      9  C   UNL     1     -52.422 -44.110 -63.213  0.00  0.00    +0.000 A 
ATOM     10 CL   UNL     1     -52.457 -45.653 -62.432  0.00  0.00    +0.000 Cl
ATOM     11  C   UNL     1     -53.503 -43.206 -63.259  0.00  0.00    +0.000 A 
ATOM     12  C   UNL     1     -54.837 -43.490 -62.664  0.00  0.00    +0.000 A 
ATOM     13  O   UNL     1     -55.023 -44.543 -62.065  0.00  0.00    +0.000 OA
ATOM     14  H   UNL     1     -54.162 -40.077 -64.066  0.00  0.00    +0.000 HD
ENDROOT
BRANCH   1  16
ATOM     15  C   UNL     1     -58.339 -43.459 -62.985  0.00  0.00    +0.000 C 
ATOM     16  C   UNL     1     -57.281 -42.790 -62.135  0.00  0.00    +0.000 C 
ATOM     17  O   UNL     1     -57.546 -42.502 -60.971  0.00  0.00    +0.000 OA
ENDBRANCH   1  16
BRANCH   2  18
ATOM     18  S   UNL     1     -56.764 -39.866 -63.288  0.00  0.00    +0.000 S 
ATOM     19  O   UNL     1     -56.481 -39.264 -61.938  0.00  0.00    +0.000 OA
BRANCH  18  20
ATOM     20  C   UNL     1     -55.939 -38.780 -64.507  0.00  0.00    +0.000 C 
BRANCH  20  21
ATOM     21  C   UNL     1     -55.270 -37.613 -63.860  0.00  0.00    +0.000 A 
ATOM     22  C   UNL     1     -55.801 -36.337 -63.534  0.00  0.00    +0.000 A 
ATOM     23  C   UNL     1     -54.780 -35.692 -62.882  0.00  0.00    +0.000 A 
ATOM     24  C   UNL     1     -54.623 -34.361 -62.263  0.00  0.00    +0.000 C 
ATOM     25  O   UNL     1     -53.704 -36.520 -62.813  0.00  0.00    +0.000 OA
ATOM     26  N   UNL     1     -54.008 -37.727 -63.419  0.00  0.00    +0.000 NA
ENDBRANCH  20  21
ENDBRANCH  18  20
ENDBRANCH   2  18
TORSDOF 4
ENDMDL
MODEL 2
REMARK VINA RESULT:    -6.753      2.149      3.861
REMARK INTER + INTRA:          -9.297
REMARK INTER:                  -8.309
REMARK INTRA:                  -0.987
REMARK UNBOUND:                -0.965
REMARK  Name = 
REMARK  6 active torsions:
REMARK  status: ('A' for Active; 'I' for Inactive)
REMARK    1  A    between atoms: C_1  and  C_2
REMARK    2  A    between atoms: C_2  and  C_4
REMARK    3  A    between atoms: C_5  and  S_6
REMARK    4  A    between atoms: S_6  and  C_8
REMARK    5  A    between atoms: C_8  and  C_9
REMARK    6  A    between atoms: C_11  and  C_12
REMARK                            x       y       z     vdW  Elec       q    Type
REMARK                         _______ _______ _______ _____ _____    ______ ____
ROOT
ATOM      1  C   UNL     1     -55.511 -42.632 -62.483  0.00  0.00    +0.000 A 
ATOM      2  C   UNL     1     -55.156 -41.476 -63.092  0.00  0.00    +0.000 A 
ATOM      3  N   UNL     1     -53.968 -41.311 -63.772  0.00  0.00    +0.000 N 
ATOM      4  C   UNL     1     -52.955 -42.285 -63.784  0.00  0.00    +0.000 A 
ATOM      5  C   UNL     1     -51.756 -42.064 -64.490  0.00  0.00    +0.000 A 
ATOM      6 BR   UNL     1     -51.440 -40.421 -65.392  0.00  0.00    +0.000 Br
ATOM      7  C   UNL     1     -50.767 -43.045 -64.551  0.00  0.00    +0.000 A 
ATOM      8  C   UNL     1     -50.968 -44.261 -63.908  0.00  0.00    +0.000 A 
ATOM      9  C   UNL     1     -52.161 -44.513 -63.220  0.00  0.00    +0.000 A 
ATOM     10 CL   UNL     1     -52.256 -46.066 -62.464  0.00  0.00    +0.000 Cl
ATOM     11  C   UNL     1     -53.172 -43.532 -63.176  0.00  0.00    +0.000 A 
ATOM     12  C   UNL     1     -54.479 -43.731 -62.493  0.00  0.00    +0.000 A 
ATOM     13  O   UNL     1     -54.701 -44.780 -61.900  0.00  0.00    +0.000 OA
ATOM     14  H   UNL     1     -53.653 -40.347 -63.885  0.00  0.00    +0.000 HD
ENDROOT
BRANCH   1  16
ATOM     15  C   UNL     1     -56.976 -42.423 -60.343  0.00  0.00    +0.000 C 
ATOM     16  C   UNL     1     -56.822 -42.867 -61.782  0.00  0.00    +0.000 C 
ATOM     17  O   UNL     1     -57.762 -43.431 -62.336  0.00  0.00    +0.000 OA
ENDBRANCH   1  16
BRANCH   2  18
ATOM     18  S   UNL     1     -56.171 -39.964 -62.922  0.00  0.00    +0.000 S 
ATOM     19  O   UNL     1     -55.164 -38.910 -62.549  0.00  0.00    +0.000 OA
BRANCH  18  20
ATOM     20  C   UNL     1     -56.573 -39.677 -64.683  0.00  0.00    +0.000 C 
BRANCH  20  21
ATOM     21  C   UNL     1     -57.139 -40.894 -65.337  0.00  0.00    +0.000 A 
ATOM     22  C   UNL     1     -56.576 -41.719 -66.346  0.00  0.00    +0.000 A 
ATOM     23  C   UNL     1     -57.483 -42.737 -66.509  0.00  0.00    +0.000 A 
ATOM     24  C   UNL     1     -57.551 -43.937 -67.366  0.00  0.00    +0.000 C 
ATOM     25  O   UNL     1     -58.523 -42.545 -65.655  0.00  0.00    +0.000 OA
ATOM     26  N   UNL     1     -58.310 -41.395 -64.915  0.00  0.00    +0.000 NA
ENDBRANCH  20  21
ENDBRANCH  18  20
ENDBRANCH   2  18
TORSDOF 4
ENDMDL
MODEL 3
REMARK VINA RESULT:    -6.268      3.294      5.969
REMARK INTER + INTRA:          -8.699
REMARK INTER:                  -7.897
REMARK INTRA:                  -0.802
REMARK UNBOUND:                -0.965
REMARK  Name = 
REMARK  6 active torsions:
REMARK  status: ('A' for Active; 'I' for Inactive)
REMARK    1  A    between atoms: C_1  and  C_2
REMARK    2  A    between atoms: C_2  and  C_4
REMARK    3  A    between atoms: C_5  and  S_6
REMARK    4  A    between atoms: S_6  and  C_8
REMARK    5  A    between atoms: C_8  and  C_9
REMARK    6  A    between atoms: C_11  and  C_12
REMARK                            x       y       z     vdW  Elec       q    Type
REMARK                         _______ _______ _______ _____ _____    ______ ____
ROOT
ATOM      1  C   UNL     1     -57.276 -40.610 -62.342  0.00  0.00    +0.000 A 
ATOM      2  C   UNL     1     -56.379 -41.552 -62.718  0.00  0.00    +0.000 A 
ATOM      3  N   UNL     1     -55.171 -41.255 -63.313  0.00  0.00    +0.000 N 
ATOM      4  C   UNL     1     -54.815 -39.954 -63.707  0.00  0.00    +0.000 A 
ATOM      5  C   UNL     1     -53.570 -39.704 -64.318  0.00  0.00    +0.000 A 
ATOM      6 BR   UNL     1     -52.361 -41.123 -64.690  0.00  0.00    +0.000 Br
ATOM      7  C   UNL     1     -53.187 -38.410 -64.665  0.00  0.00    +0.000 A 
ATOM      8  C   UNL     1     -54.045 -37.347 -64.401  0.00  0.00    +0.000 A 
ATOM      9  C   UNL     1     -55.276 -37.567 -63.774  0.00  0.00    +0.000 A 
ATOM     10 CL   UNL     1     -56.234 -36.148 -63.525  0.00  0.00    +0.000 Cl
ATOM     11  C   UNL     1     -55.657 -38.872 -63.401  0.00  0.00    +0.000 A 
ATOM     12  C   UNL     1     -56.934 -39.187 -62.705  0.00  0.00    +0.000 A 
ATOM     13  O   UNL     1     -57.731 -38.288 -62.461  0.00  0.00    +0.000 OA
ATOM     14  H   UNL     1     -54.746 -42.010 -63.853  0.00  0.00    +0.000 HD
ENDROOT
BRANCH   1  16
ATOM     15  C   UNL     1     -59.825 -41.117 -62.465  0.00  0.00    +0.000 C 
ATOM     16  C   UNL     1     -58.576 -40.893 -61.639  0.00  0.00    +0.000 C 
ATOM     17  O   UNL     1     -58.658 -40.922 -60.414  0.00  0.00    +0.000 OA
ENDBRANCH   1  16
BRANCH   2  18
ATOM     18  S   UNL     1     -56.774 -43.335 -62.609  0.00  0.00    +0.000 S 
ATOM     19  O   UNL     1     -57.207 -43.680 -64.008  0.00  0.00    +0.000 OA
BRANCH  18  20
ATOM     20  C   UNL     1     -55.082 -44.003 -62.425  0.00  0.00    +0.000 C 
BRANCH  20  21
ATOM     21  C   UNL     1     -54.687 -44.150 -60.993  0.00  0.00    +0.000 A 
ATOM     22  C   UNL     1     -54.906 -43.267 -59.903  0.00  0.00    +0.000 A 
ATOM     23  C   UNL     1     -54.415 -43.936 -58.809  0.00  0.00    +0.000 A 
ATOM     24  C   UNL     1     -54.318 -43.634 -57.367  0.00  0.00    +0.000 C 
ATOM     25  O   UNL     1     -53.935 -45.144 -59.206  0.00  0.00    +0.000 OA
ATOM     26  N   UNL     1     -54.109 -45.285 -60.573  0.00  0.00    +0.000 NA
ENDBRANCH  20  21
ENDBRANCH  18  20
ENDBRANCH   2  18
TORSDOF 4
ENDMDL
MODEL 4
REMARK VINA RESULT:    -6.178     13.533     14.463
REMARK INTER + INTRA:          -8.587
REMARK INTER:                  -7.660
REMARK INTRA:                  -0.927
REMARK UNBOUND:                -0.965
REMARK  Name = 
REMARK  6 active torsions:
REMARK  status: ('A' for Active; 'I' for Inactive)
REMARK    1  A    between atoms: C_1  and  C_2
REMARK    2  A    between atoms: C_2  and  C_4
REMARK    3  A    between atoms: C_5  and  S_6
REMARK    4  A    between atoms: S_6  and  C_8
REMARK    5  A    between atoms: C_8  and  C_9
REMARK    6  A    between atoms: C_11  and  C_12
REMARK                            x       y       z     vdW  Elec       q    Type
REMARK                         _______ _______ _______ _____ _____    ______ ____
ROOT
ATOM      1  C   UNL     1     -54.559 -42.385 -77.331  0.00  0.00    +0.000 A 
ATOM      2  C   UNL     1     -55.669 -42.788 -77.993  0.00  0.00    +0.000 A 
ATOM      3  N   UNL     1     -56.224 -44.042 -77.850  0.00  0.00    +0.000 N 
ATOM      4  C   UNL     1     -55.614 -45.065 -77.105  0.00  0.00    +0.000 A 
ATOM      5  C   UNL     1     -56.219 -46.333 -76.996  0.00  0.00    +0.000 A 
ATOM      6 BR   UNL     1     -57.843 -46.722 -77.902  0.00  0.00    +0.000 Br
ATOM      7  C   UNL     1     -55.647 -47.338 -76.217  0.00  0.00    +0.000 A 
ATOM      8  C   UNL     1     -54.462 -47.084 -75.535  0.00  0.00    +0.000 A 
ATOM      9  C   UNL     1     -53.854 -45.826 -75.609  0.00  0.00    +0.000 A 
ATOM     10 CL   UNL     1     -52.381 -45.672 -74.715  0.00  0.00    +0.000 Cl
ATOM     11  C   UNL     1     -54.442 -44.801 -76.377  0.00  0.00    +0.000 A 
ATOM     12  C   UNL     1     -53.876 -43.429 -76.484  0.00  0.00    +0.000 A 
ATOM     13  O   UNL     1     -52.826 -43.158 -75.914  0.00  0.00    +0.000 OA
ATOM     14  H   UNL     1     -56.820 -44.353 -78.618  0.00  0.00    +0.000 HD
ENDROOT
BRANCH   1  16
ATOM     15  C   UNL     1     -52.829 -40.758 -78.393  0.00  0.00    +0.000 C 
ATOM     16  C   UNL     1     -53.959 -41.007 -77.418  0.00  0.00    +0.000 C 
ATOM     17  O   UNL     1     -54.344 -40.086 -76.703  0.00  0.00    +0.000 OA
ENDBRANCH   1  16
BRANCH   2  18
ATOM     18  S   UNL     1     -56.445 -41.736 -79.273  0.00  0.00    +0.000 S 
ATOM     19  O   UNL     1     -56.582 -42.665 -80.449  0.00  0.00    +0.000 OA
BRANCH  18  20
ATOM     20  C   UNL     1     -58.120 -41.581 -78.555  0.00  0.00    +0.000 C 
BRANCH  20  21
ATOM     21  C   UNL     1     -58.087 -41.475 -77.066  0.00  0.00    +0.000 A 
ATOM     22  C   UNL     1     -57.719 -40.374 -76.250  0.00  0.00    +0.000 A 
ATOM     23  C   UNL     1     -57.957 -40.798 -74.966  0.00  0.00    +0.000 A 
ATOM     24  C   UNL     1     -57.814 -40.187 -73.630  0.00  0.00    +0.000 C 
ATOM     25  O   UNL     1     -58.440 -42.068 -75.000  0.00  0.00    +0.000 OA
ATOM     26  N   UNL     1     -58.529 -42.494 -76.314  0.00  0.00    +0.000 NA
ENDBRANCH  20  21
ENDBRANCH  18  20
ENDBRANCH   2  18
TORSDOF 4
ENDMDL
MODEL 5
REMARK VINA RESULT:    -6.178     13.496     14.634
REMARK INTER + INTRA:          -8.587
REMARK INTER:                  -8.048
REMARK INTRA:                  -0.540
REMARK UNBOUND:                -0.965
REMARK  Name = 
REMARK  6 active torsions:
REMARK  status: ('A' for Active; 'I' for Inactive)
REMARK    1  A    between atoms: C_1  and  C_2
REMARK    2  A    between atoms: C_2  and  C_4
REMARK    3  A    between atoms: C_5  and  S_6
REMARK    4  A    between atoms: S_6  and  C_8
REMARK    5  A    between atoms: C_8  and  C_9
REMARK    6  A    between atoms: C_11  and  C_12
REMARK                            x       y       z     vdW  Elec       q    Type
REMARK                         _______ _______ _______ _____ _____    ______ ____
ROOT
ATOM      1  C   UNL     1     -54.145 -40.988 -78.361  0.00  0.00    +0.000 A 
ATOM      2  C   UNL     1     -55.040 -42.004 -78.347  0.00  0.00    +0.000 A 
ATOM      3  N   UNL     1     -54.979 -43.057 -77.459  0.00  0.00    +0.000 N 
ATOM      4  C   UNL     1     -53.906 -43.244 -76.571  0.00  0.00    +0.000 A 
ATOM      5  C   UNL     1     -53.889 -44.341 -75.687  0.00  0.00    +0.000 A 
ATOM      6 BR   UNL     1     -55.278 -45.638 -75.711  0.00  0.00    +0.000 Br
ATOM      7  C   UNL     1     -52.854 -44.507 -74.768  0.00  0.00    +0.000 A 
ATOM      8  C   UNL     1     -51.825 -43.573 -74.720  0.00  0.00    +0.000 A 
ATOM      9  C   UNL     1     -51.832 -42.462 -75.571  0.00  0.00    +0.000 A 
ATOM     10 CL   UNL     1     -50.479 -41.399 -75.398  0.00  0.00    +0.000 Cl
ATOM     11  C   UNL     1     -52.889 -42.280 -76.486  0.00  0.00    +0.000 A 
ATOM     12  C   UNL     1     -52.987 -41.112 -77.404  0.00  0.00    +0.000 A 
ATOM     13  O   UNL     1     -52.099 -40.268 -77.411  0.00  0.00    +0.000 OA
ATOM     14  H   UNL     1     -55.467 -43.907 -77.746  0.00  0.00    +0.000 HD
ENDROOT
BRANCH   1  16
ATOM     15  C   UNL     1     -54.015 -39.997 -80.763  0.00  0.00    +0.000 C 
ATOM     16  C   UNL     1     -54.213 -39.795 -79.276  0.00  0.00    +0.000 C 
ATOM     17  O   UNL     1     -54.400 -38.659 -78.849  0.00  0.00    +0.000 OA
ENDBRANCH   1  16
BRANCH   2  18
ATOM     18  S   UNL     1     -56.335 -42.146 -79.633  0.00  0.00    +0.000 S 
ATOM     19  O   UNL     1     -56.810 -43.566 -79.491  0.00  0.00    +0.000 OA
BRANCH  18  20
ATOM     20  C   UNL     1     -57.627 -41.102 -78.868  0.00  0.00    +0.000 C 
BRANCH  20  21
ATOM     21  C   UNL     1     -57.674 -41.260 -77.384  0.00  0.00    +0.000 A 
ATOM     22  C   UNL     1     -57.434 -40.297 -76.369  0.00  0.00    +0.000 A 
ATOM     23  C   UNL     1     -57.698 -40.958 -75.194  0.00  0.00    +0.000 A 
ATOM     24  C   UNL     1     -57.668 -40.585 -73.766  0.00  0.00    +0.000 C 
ATOM     25  O   UNL     1     -58.077 -42.232 -75.477  0.00  0.00    +0.000 OA
ATOM     26  N   UNL     1     -58.069 -42.424 -76.848  0.00  0.00    +0.000 NA
ENDBRANCH  20  21
ENDBRANCH  18  20
ENDBRANCH   2  18
TORSDOF 4
ENDMDL
MODEL 6
REMARK VINA RESULT:    -6.113     14.624     15.697
REMARK INTER + INTRA:          -8.507
REMARK INTER:                  -7.885
REMARK INTRA:                  -0.622
REMARK UNBOUND:                -0.965
REMARK  Name = 
REMARK  6 active torsions:
REMARK  status: ('A' for Active; 'I' for Inactive)
REMARK    1  A    between atoms: C_1  and  C_2
REMARK    2  A    between atoms: C_2  and  C_4
REMARK    3  A    between atoms: C_5  and  S_6
REMARK    4  A    between atoms: S_6  and  C_8
REMARK    5  A    between atoms: C_8  and  C_9
REMARK    6  A    between atoms: C_11  and  C_12
REMARK                            x       y       z     vdW  Elec       q    Type
REMARK                         _______ _______ _______ _____ _____    ______ ____
ROOT
ATOM      1  C   UNL     1     -53.162 -41.650 -78.030  0.00  0.00    +0.000 A 
ATOM      2  C   UNL     1     -54.488 -41.411 -78.166  0.00  0.00    +0.000 A 
ATOM      3  N   UNL     1     -55.158 -41.518 -79.366  0.00  0.00    +0.000 N 
ATOM      4  C   UNL     1     -54.504 -41.757 -80.586  0.00  0.00    +0.000 A 
ATOM      5  C   UNL     1     -55.235 -41.852 -81.787  0.00  0.00    +0.000 A 
ATOM      6 BR   UNL     1     -57.118 -41.595 -81.808  0.00  0.00    +0.000 Br
ATOM      7  C   UNL     1     -54.600 -42.140 -82.994  0.00  0.00    +0.000 A 
ATOM      8  C   UNL     1     -53.224 -42.340 -83.014  0.00  0.00    +0.000 A 
ATOM      9  C   UNL     1     -52.479 -42.275 -81.831  0.00  0.00    +0.000 A 
ATOM     10 CL   UNL     1     -50.779 -42.534 -82.021  0.00  0.00    +0.000 Cl
ATOM     11  C   UNL     1     -53.122 -42.006 -80.605  0.00  0.00    +0.000 A 
ATOM     12  C   UNL     1     -52.408 -41.948 -79.300  0.00  0.00    +0.000 A 
ATOM     13  O   UNL     1     -51.193 -42.104 -79.264  0.00  0.00    +0.000 OA
ATOM     14  H   UNL     1     -56.035 -41.000 -79.432  0.00  0.00    +0.000 HD
ENDROOT
BRANCH   1  16
ATOM     15  C   UNL     1     -51.709 -40.316 -76.334  0.00  0.00    +0.000 C 
ATOM     16  C   UNL     1     -52.409 -41.598 -76.727  0.00  0.00    +0.000 C 
ATOM     17  O   UNL     1     -52.326 -42.575 -75.987  0.00  0.00    +0.000 OA
ENDBRANCH   1  16
BRANCH   2  18
ATOM     18  S   UNL     1     -55.483 -40.759 -76.776  0.00  0.00    +0.000 S 
ATOM     19  O   UNL     1     -56.726 -40.245 -77.450  0.00  0.00    +0.000 OA
BRANCH  18  20
ATOM     20  C   UNL     1     -55.955 -42.337 -75.983  0.00  0.00    +0.000 C 
BRANCH  20  21
ATOM     21  C   UNL     1     -56.732 -42.126 -74.726  0.00  0.00    +0.000 A 
ATOM     22  C   UNL     1     -58.102 -41.794 -74.559  0.00  0.00    +0.000 A 
ATOM     23  C   UNL     1     -58.301 -41.811 -73.201  0.00  0.00    +0.000 A 
ATOM     24  C   UNL     1     -59.463 -41.573 -72.321  0.00  0.00    +0.000 C 
ATOM     25  O   UNL     1     -57.134 -42.134 -72.585  0.00  0.00    +0.000 OA
ATOM     26  N   UNL     1     -56.149 -42.339 -73.537  0.00  0.00    +0.000 NA
ENDBRANCH  20  21
ENDBRANCH  18  20
ENDBRANCH   2  18
TORSDOF 4
ENDMDL
MODEL 7
REMARK VINA RESULT:    -5.823      3.184      4.031
REMARK INTER + INTRA:          -8.149
REMARK INTER:                  -7.287
REMARK INTRA:                  -0.863
REMARK UNBOUND:                -0.965
REMARK  Name = 
REMARK  6 active torsions:
REMARK  status: ('A' for Active; 'I' for Inactive)
REMARK    1  A    between atoms: C_1  and  C_2
REMARK    2  A    between atoms: C_2  and  C_4
REMARK    3  A    between atoms: C_5  and  S_6
REMARK    4  A    between atoms: S_6  and  C_8
REMARK    5  A    between atoms: C_8  and  C_9
REMARK    6  A    between atoms: C_11  and  C_12
REMARK                            x       y       z     vdW  Elec       q    Type
REMARK                         _______ _______ _______ _____ _____    ______ ____
ROOT
ATOM      1  C   UNL     1     -56.211 -42.376 -63.062  0.00  0.00    +0.000 A 
ATOM      2  C   UNL     1     -56.938 -41.605 -62.219  0.00  0.00    +0.000 A 
ATOM      3  N   UNL     1     -56.779 -41.620 -60.850  0.00  0.00    +0.000 N 
ATOM      4  C   UNL     1     -55.941 -42.535 -60.190  0.00  0.00    +0.000 A 
ATOM      5  C   UNL     1     -55.819 -42.513 -58.786  0.00  0.00    +0.000 A 
ATOM      6 BR   UNL     1     -56.830 -41.295 -57.735  0.00  0.00    +0.000 Br
ATOM      7  C   UNL     1     -54.952 -43.383 -58.127  0.00  0.00    +0.000 A 
ATOM      8  C   UNL     1     -54.192 -44.283 -58.866  0.00  0.00    +0.000 A 
ATOM      9  C   UNL     1     -54.278 -44.308 -60.262  0.00  0.00    +0.000 A 
ATOM     10 CL   UNL     1     -53.281 -45.491 -61.036  0.00  0.00    +0.000 Cl
ATOM     11  C   UNL     1     -55.138 -43.415 -60.933  0.00  0.00    +0.000 A 
ATOM     12  C   UNL     1     -55.265 -43.356 -62.415  0.00  0.00    +0.000 A 
ATOM     13  O   UNL     1     -54.628 -44.137 -63.111  0.00  0.00    +0.000 OA
ATOM     14  H   UNL     1     -57.576 -41.283 -60.307  0.00  0.00    +0.000 HD
ENDROOT
BRANCH   1  16
ATOM     15  C   UNL     1     -55.455 -41.372 -65.340  0.00  0.00    +0.000 C 
ATOM     16  C   UNL     1     -56.317 -42.344 -64.563  0.00  0.00    +0.000 C 
ATOM     17  O   UNL     1     -57.099 -43.067 -65.174  0.00  0.00    +0.000 OA
ENDBRANCH   1  16
BRANCH   2  18
ATOM     18  S   UNL     1     -58.323 -40.578 -62.829  0.00  0.00    +0.000 S 
ATOM     19  O   UNL     1     -59.542 -41.309 -62.334  0.00  0.00    +0.000 OA
BRANCH  18  20
ATOM     20  C   UNL     1     -58.124 -39.129 -61.731  0.00  0.00    +0.000 C 
BRANCH  20  21
ATOM     21  C   UNL     1     -57.299 -38.055 -62.359  0.00  0.00    +0.000 A 
ATOM     22  C   UNL     1     -56.170 -38.170 -63.213  0.00  0.00    +0.000 A 
ATOM     23  C   UNL     1     -55.864 -36.877 -63.560  0.00  0.00    +0.000 A 
ATOM     24  C   UNL     1     -54.835 -36.249 -64.412  0.00  0.00    +0.000 C 
ATOM     25  O   UNL     1     -56.748 -36.036 -62.962  0.00  0.00    +0.000 OA
ATOM     26  N   UNL     1     -57.653 -36.769 -62.214  0.00  0.00    +0.000 NA
ENDBRANCH  20  21
ENDBRANCH  18  20
ENDBRANCH   2  18
TORSDOF 4
ENDMDL
MODEL 8
REMARK VINA RESULT:    -5.747     15.312     16.273
REMARK INTER + INTRA:          -8.056
REMARK INTER:                  -7.217
REMARK INTRA:                  -0.840
REMARK UNBOUND:                -0.965
REMARK  Name = 
REMARK  6 active torsions:
REMARK  status: ('A' for Active; 'I' for Inactive)
REMARK    1  A    between atoms: C_1  and  C_2
REMARK    2  A    between atoms: C_2  and  C_4
REMARK    3  A    between atoms: C_5  and  S_6
REMARK    4  A    between atoms: S_6  and  C_8
REMARK    5  A    between atoms: C_8  and  C_9
REMARK    6  A    between atoms: C_11  and  C_12
REMARK                            x       y       z     vdW  Elec       q    Type
REMARK                         _______ _______ _______ _____ _____    ______ ____
ROOT
ATOM      1  C   UNL     1     -55.352 -44.166 -78.181  0.00  0.00    +0.000 A 
ATOM      2  C   UNL     1     -55.599 -43.052 -78.909  0.00  0.00    +0.000 A 
ATOM      3  N   UNL     1     -54.883 -41.881 -78.772  0.00  0.00    +0.000 N 
ATOM      4  C   UNL     1     -53.917 -41.692 -77.769  0.00  0.00    +0.000 A 
ATOM      5  C   UNL     1     -53.218 -40.473 -77.667  0.00  0.00    +0.000 A 
ATOM      6 BR   UNL     1     -53.602 -39.024 -78.836  0.00  0.00    +0.000 Br
ATOM      7  C   UNL     1     -52.221 -40.294 -76.709  0.00  0.00    +0.000 A 
ATOM      8  C   UNL     1     -51.910 -41.336 -75.842  0.00  0.00    +0.000 A 
ATOM      9  C   UNL     1     -52.574 -42.564 -75.939  0.00  0.00    +0.000 A 
ATOM     10 CL   UNL     1     -52.084 -43.755 -74.784  0.00  0.00    +0.000 Cl
ATOM     11  C   UNL     1     -53.567 -42.755 -76.922  0.00  0.00    +0.000 A 
ATOM     12  C   UNL     1     -54.298 -44.038 -77.110  0.00  0.00    +0.000 A 
ATOM     13  O   UNL     1     -54.071 -44.983 -76.364  0.00  0.00    +0.000 OA
ATOM     14  H   UNL     1     -55.352 -41.034 -79.096  0.00  0.00    +0.000 HD
ENDROOT
BRANCH   1  16
ATOM     15  C   UNL     1     -57.295 -45.754 -77.495  0.00  0.00    +0.000 C 
ATOM     16  C   UNL     1     -56.073 -45.477 -78.344  0.00  0.00    +0.000 C 
ATOM     17  O   UNL     1     -55.684 -46.338 -79.128  0.00  0.00    +0.000 OA
ENDBRANCH   1  16
BRANCH   2  18
ATOM     18  S   UNL     1     -57.032 -42.958 -80.043  0.00  0.00    +0.000 S 
ATOM     19  O   UNL     1     -57.306 -41.481 -80.134  0.00  0.00    +0.000 OA
BRANCH  18  20
ATOM     20  C   UNL     1     -56.202 -43.413 -81.608  0.00  0.00    +0.000 C 
BRANCH  20  21
ATOM     21  C   UNL     1     -54.774 -42.980 -81.635  0.00  0.00    +0.000 A 
ATOM     22  C   UNL     1     -53.593 -43.765 -81.555  0.00  0.00    +0.000 A 
ATOM     23  C   UNL     1     -52.567 -42.866 -81.716  0.00  0.00    +0.000 A 
ATOM     24  C   UNL     1     -51.095 -42.970 -81.752  0.00  0.00    +0.000 C 
ATOM     25  O   UNL     1     -53.089 -41.623 -81.886  0.00  0.00    +0.000 OA
ATOM     26  N   UNL     1     -54.471 -41.690 -81.843  0.00  0.00    +0.000 NA
ENDBRANCH  20  21
ENDBRANCH  18  20
ENDBRANCH   2  18
TORSDOF 4
ENDMDL
MODEL 9
REMARK VINA RESULT:    -5.599     13.940     14.820
REMARK INTER + INTRA:          -7.873
REMARK INTER:                  -7.257
REMARK INTRA:                  -0.616
REMARK UNBOUND:                -0.965
REMARK  Name = 
REMARK  6 active torsions:
REMARK  status: ('A' for Active; 'I' for Inactive)
REMARK    1  A    between atoms: C_1  and  C_2
REMARK    2  A    between atoms: C_2  and  C_4
REMARK    3  A    between atoms: C_5  and  S_6
REMARK    4  A    between atoms: S_6  and  C_8
REMARK    5  A    between atoms: C_8  and  C_9
REMARK    6  A    between atoms: C_11  and  C_12
REMARK                            x       y       z     vdW  Elec       q    Type
REMARK                         _______ _______ _______ _____ _____    ______ ____
ROOT
ATOM      1  C   UNL     1     -57.366 -41.833 -78.936  0.00  0.00    +0.000 A 
ATOM      2  C   UNL     1     -56.953 -42.087 -77.672  0.00  0.00    +0.000 A 
ATOM      3  N   UNL     1     -55.626 -42.113 -77.299  0.00  0.00    +0.000 N 
ATOM      4  C   UNL     1     -54.572 -42.010 -78.223  0.00  0.00    +0.000 A 
ATOM      5  C   UNL     1     -53.231 -42.049 -77.791  0.00  0.00    +0.000 A 
ATOM      6 BR   UNL     1     -52.802 -42.308 -75.958  0.00  0.00    +0.000 Br
ATOM      7  C   UNL     1     -52.181 -41.895 -78.694  0.00  0.00    +0.000 A 
ATOM      8  C   UNL     1     -52.459 -41.698 -80.042  0.00  0.00    +0.000 A 
ATOM      9  C   UNL     1     -53.782 -41.631 -80.492  0.00  0.00    +0.000 A 
ATOM     10 CL   UNL     1     -53.965 -41.393 -82.196  0.00  0.00    +0.000 Cl
ATOM     11  C   UNL     1     -54.848 -41.764 -79.578  0.00  0.00    +0.000 A 
ATOM     12  C   UNL     1     -56.281 -41.676 -79.970  0.00  0.00    +0.000 A 
ATOM     13  O   UNL     1     -56.580 -41.516 -81.148  0.00  0.00    +0.000 OA
ATOM     14  H   UNL     1     -55.415 -42.636 -76.448  0.00  0.00    +0.000 HD
ENDROOT
BRANCH   1  16
ATOM     15  C   UNL     1     -59.455 -42.938 -80.026  0.00  0.00    +0.000 C 
ATOM     16  C   UNL     1     -58.806 -41.739 -79.367  0.00  0.00    +0.000 C 
ATOM     17  O   UNL     1     -59.461 -40.711 -79.222  0.00  0.00    +0.000 OA
ENDBRANCH   1  16
BRANCH   2  18
ATOM     18  S   UNL     1     -58.137 -42.582 -76.368  0.00  0.00    +0.000 S 
ATOM     19  O   UNL     1     -57.353 -43.569 -75.546  0.00  0.00    +0.000 OA
BRANCH  18  20
ATOM     20  C   UNL     1     -58.173 -41.033 -75.397  0.00  0.00    +0.000 C 
BRANCH  20  21
ATOM     21  C   UNL     1     -57.916 -41.272 -73.945  0.00  0.00    +0.000 A 
ATOM     22  C   UNL     1     -56.681 -41.348 -73.250  0.00  0.00    +0.000 A 
ATOM     23  C   UNL     1     -57.033 -41.496 -71.931  0.00  0.00    +0.000 A 
ATOM     24  C   UNL     1     -56.283 -41.628 -70.666  0.00  0.00    +0.000 C 
ATOM     25  O   UNL     1     -58.389 -41.504 -71.832  0.00  0.00    +0.000 OA
ATOM     26  N   UNL     1     -58.946 -41.358 -73.090  0.00  0.00    +0.000 NA
ENDBRANCH  20  21
ENDBRANCH  18  20
ENDBRANCH   2  18
TORSDOF 4
ENDMDL
MODEL 10
REMARK VINA RESULT:    -5.448      4.485      7.110
REMARK INTER + INTRA:          -7.687
REMARK INTER:                  -6.692
REMARK INTRA:                  -0.995
REMARK UNBOUND:                -0.965
REMARK  Name = 
REMARK  6 active torsions:
REMARK  status: ('A' for Active; 'I' for Inactive)
REMARK    1  A    between atoms: C_1  and  C_2
REMARK    2  A    between atoms: C_2  and  C_4
REMARK    3  A    between atoms: C_5  and  S_6
REMARK    4  A    between atoms: S_6  and  C_8
REMARK    5  A    between atoms: C_8  and  C_9
REMARK    6  A    between atoms: C_11  and  C_12
REMARK                            x       y       z     vdW  Elec       q    Type
REMARK                         _______ _______ _______ _____ _____    ______ ____
ROOT
ATOM      1  C   UNL     1     -59.306 -38.182 -61.578  0.00  0.00    +0.000 A 
ATOM      2  C   UNL     1     -58.478 -39.178 -61.971  0.00  0.00    +0.000 A 
ATOM      3  N   UNL     1     -57.223 -38.957 -62.499  0.00  0.00    +0.000 N 
ATOM      4  C   UNL     1     -56.740 -37.673 -62.803  0.00  0.00    +0.000 A 
ATOM      5  C   UNL     1     -55.451 -37.502 -63.348  0.00  0.00    +0.000 A 
ATOM      6 BR   UNL     1     -54.353 -38.999 -63.752  0.00  0.00    +0.000 Br
ATOM      7  C   UNL     1     -54.944 -36.229 -63.605  0.00  0.00    +0.000 A 
ATOM      8  C   UNL     1     -55.718 -35.111 -63.315  0.00  0.00    +0.000 A 
ATOM      9  C   UNL     1     -56.991 -35.254 -62.752  0.00  0.00    +0.000 A 
ATOM     10 CL   UNL     1     -57.834 -33.772 -62.461  0.00  0.00    +0.000 Cl
ATOM     11  C   UNL     1     -57.499 -36.539 -62.470  0.00  0.00    +0.000 A 
ATOM     12  C   UNL     1     -58.828 -36.777 -61.845  0.00  0.00    +0.000 A 
ATOM     13  O   UNL     1     -59.556 -35.826 -61.583  0.00  0.00    +0.000 OA
ATOM     14  H   UNL     1     -56.840 -39.716 -63.064  0.00  0.00    +0.000 HD
ENDROOT
BRANCH   1  16
ATOM     15  C   UNL     1     -61.884 -38.429 -61.830  0.00  0.00    +0.000 C 
ATOM     16  C   UNL     1     -60.657 -38.387 -60.945  0.00  0.00    +0.000 C 
ATOM     17  O   UNL     1     -60.794 -38.495 -59.730  0.00  0.00    +0.000 OA
ENDBRANCH   1  16
BRANCH   2  18
ATOM     18  S   UNL     1     -59.029 -40.922 -61.980  0.00  0.00    +0.000 S 
ATOM     19  O   UNL     1     -59.893 -41.007 -63.209  0.00  0.00    +0.000 OA
BRANCH  18  20
ATOM     20  C   UNL     1     -57.448 -41.730 -62.419  0.00  0.00    +0.000 C 
BRANCH  20  21
ATOM     21  C   UNL     1     -57.405 -42.143 -63.853  0.00  0.00    +0.000 A 
ATOM     22  C   UNL     1     -57.764 -43.384 -64.444  0.00  0.00    +0.000 A 
ATOM     23  C   UNL     1     -57.611 -43.183 -65.793  0.00  0.00    +0.000 A 
ATOM     24  C   UNL     1     -57.809 -44.019 -66.994  0.00  0.00    +0.000 C 
ATOM     25  O   UNL     1     -57.193 -41.908 -66.008  0.00  0.00    +0.000 OA
ATOM     26  N   UNL     1     -57.069 -41.250 -64.796  0.00  0.00    +0.000 NA
ENDBRANCH  20  21
ENDBRANCH  18  20
ENDBRANCH   2  18
TORSDOF 4
ENDMDL
MODEL 11
REMARK VINA RESULT:    -5.284      4.060      6.997
REMARK INTER + INTRA:          -7.484
REMARK INTER:                  -6.629
REMARK INTRA:                  -0.855
REMARK UNBOUND:                -0.965
REMARK  Name = 
REMARK  6 active torsions:
REMARK  status: ('A' for Active; 'I' for Inactive)
REMARK    1  A    between atoms: C_1  and  C_2
REMARK    2  A    between atoms: C_2  and  C_4
REMARK    3  A    between atoms: C_5  and  S_6
REMARK    4  A    between atoms: S_6  and  C_8
REMARK    5  A    between atoms: C_8  and  C_9
REMARK    6  A    between atoms: C_11  and  C_12
REMARK                            x       y       z     vdW  Elec       q    Type
REMARK                         _______ _______ _______ _____ _____    ______ ____
ROOT
ATOM      1  C   UNL     1     -58.092 -38.514 -62.198  0.00  0.00    +0.000 A 
ATOM      2  C   UNL     1     -58.741 -39.702 -62.206  0.00  0.00    +0.000 A 
ATOM      3  N   UNL     1     -58.188 -40.866 -62.697  0.00  0.00    +0.000 N 
ATOM      4  C   UNL     1     -56.948 -40.901 -63.356  0.00  0.00    +0.000 A 
ATOM      5  C   UNL     1     -56.429 -42.117 -63.845  0.00  0.00    +0.000 A 
ATOM      6 BR   UNL     1     -57.415 -43.734 -63.689  0.00  0.00    +0.000 Br
ATOM      7  C   UNL     1     -55.177 -42.169 -64.455  0.00  0.00    +0.000 A 
ATOM      8  C   UNL     1     -54.426 -41.005 -64.580  0.00  0.00    +0.000 A 
ATOM      9  C   UNL     1     -54.909 -39.790 -64.081  0.00  0.00    +0.000 A 
ATOM     10 CL   UNL     1     -53.865 -38.433 -64.324  0.00  0.00    +0.000 Cl
ATOM     11  C   UNL     1     -56.166 -39.738 -63.444  0.00  0.00    +0.000 A 
ATOM     12  C   UNL     1     -56.738 -38.494 -62.860  0.00  0.00    +0.000 A 
ATOM     13  O   UNL     1     -56.122 -37.439 -62.956  0.00  0.00    +0.000 OA
ATOM     14  H   UNL     1     -58.852 -41.592 -62.969  0.00  0.00    +0.000 HD
ENDROOT
BRANCH   1  16
ATOM     15  C   UNL     1     -58.427 -36.945 -60.150  0.00  0.00    +0.000 C 
ATOM     16  C   UNL     1     -58.642 -37.238 -61.619  0.00  0.00    +0.000 C 
ATOM     17  O   UNL     1     -59.281 -36.440 -62.299  0.00  0.00    +0.000 OA
ENDBRANCH   1  16
BRANCH   2  18
ATOM     18  S   UNL     1     -60.496 -39.828 -61.703  0.00  0.00    +0.000 S 
ATOM     19  O   UNL     1     -61.100 -40.701 -62.769  0.00  0.00    +0.000 OA
BRANCH  18  20
ATOM     20  C   UNL     1     -60.306 -40.892 -60.227  0.00  0.00    +0.000 C 
BRANCH  20  21
ATOM     21  C   UNL     1     -60.799 -42.281 -60.467  0.00  0.00    +0.000 A 
ATOM     22  C   UNL     1     -60.078 -43.435 -60.870  0.00  0.00    +0.000 A 
ATOM     23  C   UNL     1     -61.004 -44.448 -60.850  0.00  0.00    +0.000 A 
ATOM     24  C   UNL     1     -60.964 -45.895 -61.140  0.00  0.00    +0.000 C 
ATOM     25  O   UNL     1     -62.204 -43.945 -60.458  0.00  0.00    +0.000 OA
ATOM     26  N   UNL     1     -62.079 -42.588 -60.210  0.00  0.00    +0.000 NA
ENDBRANCH  20  21
ENDBRANCH  18  20
ENDBRANCH   2  18
TORSDOF 4
ENDMDL
MODEL 12
REMARK VINA RESULT:    -5.280      3.617      6.004
REMARK INTER + INTRA:          -7.479
REMARK INTER:                  -6.472
REMARK INTRA:                  -1.007
REMARK UNBOUND:                -0.965
REMARK  Name = 
REMARK  6 active torsions:
REMARK  status: ('A' for Active; 'I' for Inactive)
REMARK    1  A    between atoms: C_1  and  C_2
REMARK    2  A    between atoms: C_2  and  C_4
REMARK    3  A    between atoms: C_5  and  S_6
REMARK    4  A    between atoms: S_6  and  C_8
REMARK    5  A    between atoms: C_8  and  C_9
REMARK    6  A    between atoms: C_11  and  C_12
REMARK                            x       y       z     vdW  Elec       q    Type
REMARK                         _______ _______ _______ _____ _____    ______ ____
ROOT
ATOM      1  C   UNL     1     -55.556 -37.311 -62.671  0.00  0.00    +0.000 A 
ATOM      2  C   UNL     1     -56.467 -38.151 -62.125  0.00  0.00    +0.000 A 
ATOM      3  N   UNL     1     -56.418 -39.521 -62.272  0.00  0.00    +0.000 N 
ATOM      4  C   UNL     1     -55.494 -40.166 -63.111  0.00  0.00    +0.000 A 
ATOM      5  C   UNL     1     -55.491 -41.570 -63.231  0.00  0.00    +0.000 A 
ATOM      6 BR   UNL     1     -56.773 -42.633 -62.315  0.00  0.00    +0.000 Br
ATOM      7  C   UNL     1     -54.546 -42.221 -64.021  0.00  0.00    +0.000 A 
ATOM      8  C   UNL     1     -53.589 -41.475 -64.700  0.00  0.00    +0.000 A 
ATOM      9  C   UNL     1     -53.557 -40.081 -64.579  0.00  0.00    +0.000 A 
ATOM     10 CL   UNL     1     -52.317 -39.294 -65.493  0.00  0.00    +0.000 Cl
ATOM     11  C   UNL     1     -54.498 -39.421 -63.762  0.00  0.00    +0.000 A 
ATOM     12  C   UNL     1     -54.514 -37.947 -63.556  0.00  0.00    +0.000 A 
ATOM     13  O   UNL     1     -53.701 -37.242 -64.142  0.00  0.00    +0.000 OA
ATOM     14  H   UNL     1     -57.301 -40.014 -62.129  0.00  0.00    +0.000 HD
ENDROOT
BRANCH   1  16
ATOM     15  C   UNL     1     -54.746 -35.225 -61.345  0.00  0.00    +0.000 C 
ATOM     16  C   UNL     1     -55.545 -35.817 -62.485  0.00  0.00    +0.000 C 
ATOM     17  O   UNL     1     -56.185 -35.068 -63.218  0.00  0.00    +0.000 OA
ENDBRANCH   1  16
BRANCH   2  18
ATOM     18  S   UNL     1     -57.952 -37.513 -61.268  0.00  0.00    +0.000 S 
ATOM     19  O   UNL     1     -58.841 -37.069 -62.397  0.00  0.00    +0.000 OA
BRANCH  18  20
ATOM     20  C   UNL     1     -58.650 -39.094 -60.668  0.00  0.00    +0.000 C 
BRANCH  20  21
ATOM     21  C   UNL     1     -59.815 -39.542 -61.488  0.00  0.00    +0.000 A 
ATOM     22  C   UNL     1     -61.195 -39.250 -61.326  0.00  0.00    +0.000 A 
ATOM     23  C   UNL     1     -61.804 -39.845 -62.403  0.00  0.00    +0.000 A 
ATOM     24  C   UNL     1     -63.198 -39.946 -62.880  0.00  0.00    +0.000 C 
ATOM     25  O   UNL     1     -60.859 -40.453 -63.168  0.00  0.00    +0.000 OA
ATOM     26  N   UNL     1     -59.610 -40.260 -62.602  0.00  0.00    +0.000 NA
ENDBRANCH  20  21
ENDBRANCH  18  20
ENDBRANCH   2  18
TORSDOF 4
ENDMDL
MODEL 13
REMARK VINA RESULT:    -5.116     15.839     18.106
REMARK INTER + INTRA:          -7.277
REMARK INTER:                  -6.450
REMARK INTRA:                  -0.827
REMARK UNBOUND:                -0.965
REMARK  Name = 
REMARK  6 active torsions:
REMARK  status: ('A' for Active; 'I' for Inactive)
REMARK    1  A    between atoms: C_1  and  C_2
REMARK    2  A    between atoms: C_2  and  C_4
REMARK    3  A    between atoms: C_5  and  S_6
REMARK    4  A    between atoms: S_6  and  C_8
REMARK    5  A    between atoms: C_8  and  C_9
REMARK    6  A    between atoms: C_11  and  C_12
REMARK                            x       y       z     vdW  Elec       q    Type
REMARK                         _______ _______ _______ _____ _____    ______ ____
ROOT
ATOM      1  C   UNL     1     -49.606 -25.169 -61.949  0.00  0.00    +0.000 A 
ATOM      2  C   UNL     1     -48.473 -25.613 -62.539  0.00  0.00    +0.000 A 
ATOM      3  N   UNL     1     -47.995 -25.116 -63.734  0.00  0.00    +0.000 N 
ATOM      4  C   UNL     1     -48.710 -24.194 -64.516  0.00  0.00    +0.000 A 
ATOM      5  C   UNL     1     -48.179 -23.722 -65.733  0.00  0.00    +0.000 A 
ATOM      6 BR   UNL     1     -46.515 -24.362 -66.389  0.00  0.00    +0.000 Br
ATOM      7  C   UNL     1     -48.858 -22.769 -66.491  0.00  0.00    +0.000 A 
ATOM      8  C   UNL     1     -50.076 -22.273 -66.037  0.00  0.00    +0.000 A 
ATOM      9  C   UNL     1     -50.612 -22.709 -64.820  0.00  0.00    +0.000 A 
ATOM     10 CL   UNL     1     -52.137 -22.010 -64.400  0.00  0.00    +0.000 Cl
ATOM     11  C   UNL     1     -49.917 -23.657 -64.041  0.00  0.00    +0.000 A 
ATOM     12  C   UNL     1     -50.403 -24.149 -62.723  0.00  0.00    +0.000 A 
ATOM     13  O   UNL     1     -51.477 -23.755 -62.285  0.00  0.00    +0.000 OA
ATOM     14  H   UNL     1     -47.360 -25.730 -64.247  0.00  0.00    +0.000 HD
ENDROOT
BRANCH   1  16
ATOM     15  C   UNL     1     -51.096 -26.809 -60.584  0.00  0.00    +0.000 C 
ATOM     16  C   UNL     1     -50.127 -25.647 -60.619  0.00  0.00    +0.000 C 
ATOM     17  O   UNL     1     -49.808 -25.104 -59.565  0.00  0.00    +0.000 OA
ENDBRANCH   1  16
BRANCH   2  18
ATOM     18  S   UNL     1     -47.552 -27.045 -61.870  0.00  0.00    +0.000 S 
ATOM     19  O   UNL     1     -47.229 -27.855 -63.097  0.00  0.00    +0.000 OA
BRANCH  18  20
ATOM     20  C   UNL     1     -45.998 -26.204 -61.398  0.00  0.00    +0.000 C 
BRANCH  20  21
ATOM     21  C   UNL     1     -46.163 -25.359 -60.178  0.00  0.00    +0.000 A 
ATOM     22  C   UNL     1     -45.843 -25.655 -58.827  0.00  0.00    +0.000 A 
ATOM     23  C   UNL     1     -46.118 -24.497 -58.143  0.00  0.00    +0.000 A 
ATOM     24  C   UNL     1     -46.018 -24.079 -56.730  0.00  0.00    +0.000 C 
ATOM     25  O   UNL     1     -46.570 -23.560 -59.019  0.00  0.00    +0.000 OA
ATOM     26  N   UNL     1     -46.594 -24.094 -60.296  0.00  0.00    +0.000 NA
ENDBRANCH  20  21
ENDBRANCH  18  20
ENDBRANCH   2  18
TORSDOF 4
ENDMDL
MODEL 14
REMARK VINA RESULT:    -5.075     12.726     17.682
REMARK INTER + INTRA:          -7.227
REMARK INTER:                  -6.487
REMARK INTRA:                  -0.739
REMARK UNBOUND:                -0.965
REMARK  Name = 
REMARK  6 active torsions:
REMARK  status: ('A' for Active; 'I' for Inactive)
REMARK    1  A    between atoms: C_1  and  C_2
REMARK    2  A    between atoms: C_2  and  C_4
REMARK    3  A    between atoms: C_5  and  S_6
REMARK    4  A    between atoms: S_6  and  C_8
REMARK    5  A    between atoms: C_8  and  C_9
REMARK    6  A    between atoms: C_11  and  C_12
REMARK                            x       y       z     vdW  Elec       q    Type
REMARK                         _______ _______ _______ _____ _____    ______ ____
ROOT
ATOM      1  C   UNL     1     -46.936 -25.274 -64.318  0.00  0.00    +0.000 A 
ATOM      2  C   UNL     1     -47.508 -25.602 -63.136  0.00  0.00    +0.000 A 
ATOM      3  N   UNL     1     -48.733 -25.117 -62.726  0.00  0.00    +0.000 N 
ATOM      4  C   UNL     1     -49.440 -24.133 -63.437  0.00  0.00    +0.000 A 
ATOM      5  C   UNL     1     -50.685 -23.666 -62.972  0.00  0.00    +0.000 A 
ATOM      6 BR   UNL     1     -51.419 -24.301 -61.337  0.00  0.00    +0.000 Br
ATOM      7  C   UNL     1     -51.418 -22.728 -63.697  0.00  0.00    +0.000 A 
ATOM      8  C   UNL     1     -50.913 -22.247 -64.900  0.00  0.00    +0.000 A 
ATOM      9  C   UNL     1     -49.690 -22.713 -65.396  0.00  0.00    +0.000 A 
ATOM     10 CL   UNL     1     -49.193 -22.011 -66.897  0.00  0.00    +0.000 Cl
ATOM     11  C   UNL     1     -48.958 -23.679 -64.675  0.00  0.00    +0.000 A 
ATOM     12  C   UNL     1     -47.665 -24.247 -65.146  0.00  0.00    +0.000 A 
ATOM     13  O   UNL     1     -47.171 -23.847 -66.194  0.00  0.00    +0.000 OA
ATOM     14  H   UNL     1     -48.905 -25.142 -61.720  0.00  0.00    +0.000 HD
ENDROOT
BRANCH   1  16
ATOM     15  C   UNL     1     -44.353 -25.061 -64.553  0.00  0.00    +0.000 C 
ATOM     16  C   UNL     1     -45.630 -25.827 -64.823  0.00  0.00    +0.000 C 
ATOM     17  O   UNL     1     -45.574 -26.869 -65.470  0.00  0.00    +0.000 OA
ENDBRANCH   1  16
BRANCH   2  18
ATOM     18  S   UNL     1     -46.616 -26.608 -61.896  0.00  0.00    +0.000 S 
ATOM     19  O   UNL     1     -46.021 -25.576 -60.976  0.00  0.00    +0.000 OA
BRANCH  18  20
ATOM     20  C   UNL     1     -48.047 -27.314 -61.002  0.00  0.00    +0.000 C 
BRANCH  20  21
ATOM     21  C   UNL     1     -48.304 -28.735 -61.384  0.00  0.00    +0.000 A 
ATOM     22  C   UNL     1     -49.514 -29.350 -61.801  0.00  0.00    +0.000 A 
ATOM     23  C   UNL     1     -49.160 -30.640 -62.107  0.00  0.00    +0.000 A 
ATOM     24  C   UNL     1     -49.889 -31.825 -62.603  0.00  0.00    +0.000 C 
ATOM     25  O   UNL     1     -47.827 -30.797 -61.895  0.00  0.00    +0.000 OA
ATOM     26  N   UNL     1     -47.285 -29.605 -61.448  0.00  0.00    +0.000 NA
ENDBRANCH  20  21
ENDBRANCH  18  20
ENDBRANCH   2  18
TORSDOF 4
ENDMDL
MODEL 15
REMARK VINA RESULT:    -5.013     13.004     15.591
REMARK INTER + INTRA:          -7.150
REMARK INTER:                  -6.359
REMARK INTRA:                  -0.791
REMARK UNBOUND:                -0.965
REMARK  Name = 
REMARK  6 active torsions:
REMARK  status: ('A' for Active; 'I' for Inactive)
REMARK    1  A    between atoms: C_1  and  C_2
REMARK    2  A    between atoms: C_2  and  C_4
REMARK    3  A    between atoms: C_5  and  S_6
REMARK    4  A    between atoms: S_6  and  C_8
REMARK    5  A    between atoms: C_8  and  C_9
REMARK    6  A    between atoms: C_11  and  C_12
REMARK                            x       y       z     vdW  Elec       q    Type
REMARK                         _______ _______ _______ _____ _____    ______ ____
ROOT
ATOM      1  C   UNL     1     -65.066 -43.162 -69.922  0.00  0.00    +0.000 A 
ATOM      2  C   UNL     1     -66.270 -43.468 -70.458  0.00  0.00    +0.000 A 
ATOM      3  N   UNL     1     -66.445 -43.810 -71.783  0.00  0.00    +0.000 N 
ATOM      4  C   UNL     1     -65.410 -43.743 -72.731  0.00  0.00    +0.000 A 
ATOM      5  C   UNL     1     -65.644 -44.097 -74.075  0.00  0.00    +0.000 A 
ATOM      6 BR   UNL     1     -67.376 -44.612 -74.664  0.00  0.00    +0.000 Br
ATOM      7  C   UNL     1     -64.611 -44.084 -75.011  0.00  0.00    +0.000 A 
ATOM      8  C   UNL     1     -63.330 -43.718 -74.612  0.00  0.00    +0.000 A 
ATOM      9  C   UNL     1     -63.068 -43.386 -73.278  0.00  0.00    +0.000 A 
ATOM     10 CL   UNL     1     -61.430 -42.942 -72.942  0.00  0.00    +0.000 Cl
ATOM     11  C   UNL     1     -64.106 -43.420 -72.324  0.00  0.00    +0.000 A 
ATOM     12  C   UNL     1     -63.905 -43.110 -70.883  0.00  0.00    +0.000 A 
ATOM     13  O   UNL     1     -62.798 -42.769 -70.482  0.00  0.00    +0.000 OA
ATOM     14  H   UNL     1     -67.389 -43.683 -72.152  0.00  0.00    +0.000 HD
ENDROOT
BRANCH   1  16
ATOM     15  C   UNL     1     -64.841 -41.395 -68.026  0.00  0.00    +0.000 C 
ATOM     16  C   UNL     1     -64.828 -42.841 -68.470  0.00  0.00    +0.000 C 
ATOM     17  O   UNL     1     -64.599 -43.718 -67.641  0.00  0.00    +0.000 OA
ENDBRANCH   1  16
BRANCH   2  18
ATOM     18  S   UNL     1     -67.812 -43.295 -69.490  0.00  0.00    +0.000 S 
ATOM     19  O   UNL     1     -68.038 -41.808 -69.459  0.00  0.00    +0.000 OA
BRANCH  18  20
ATOM     20  C   UNL     1     -69.004 -43.960 -70.708  0.00  0.00    +0.000 C 
BRANCH  20  21
ATOM     21  C   UNL     1     -69.551 -45.286 -70.294  0.00  0.00    +0.000 A 
ATOM     22  C   UNL     1     -70.186 -46.283 -71.081  0.00  0.00    +0.000 A 
ATOM     23  C   UNL     1     -70.405 -47.323 -70.213  0.00  0.00    +0.000 A 
ATOM     24  C   UNL     1     -71.006 -48.667 -70.335  0.00  0.00    +0.000 C 
ATOM     25  O   UNL     1     -69.933 -46.984 -68.984  0.00  0.00    +0.000 OA
ATOM     26  N   UNL     1     -69.391 -45.710 -69.032  0.00  0.00    +0.000 NA
ENDBRANCH  20  21
ENDBRANCH  18  20
ENDBRANCH   2  18
TORSDOF 4
ENDMDL
MODEL 16
REMARK VINA RESULT:    -4.841      4.324      6.706
REMARK INTER + INTRA:          -6.938
REMARK INTER:                  -6.246
REMARK INTRA:                  -0.692
REMARK UNBOUND:                -0.965
REMARK  Name = 
REMARK  6 active torsions:
REMARK  status: ('A' for Active; 'I' for Inactive)
REMARK    1  A    between atoms: C_1  and  C_2
REMARK    2  A    between atoms: C_2  and  C_4
REMARK    3  A    between atoms: C_5  and  S_6
REMARK    4  A    between atoms: S_6  and  C_8
REMARK    5  A    between atoms: C_8  and  C_9
REMARK    6  A    between atoms: C_11  and  C_12
REMARK                            x       y       z     vdW  Elec       q    Type
REMARK                         _______ _______ _______ _____ _____    ______ ____
ROOT
ATOM      1  C   UNL     1     -57.619 -40.394 -62.564  0.00  0.00    +0.000 A 
ATOM      2  C   UNL     1     -58.248 -39.271 -62.146  0.00  0.00    +0.000 A 
ATOM      3  N   UNL     1     -57.784 -37.999 -62.410  0.00  0.00    +0.000 N 
ATOM      4  C   UNL     1     -56.545 -37.752 -63.024  0.00  0.00    +0.000 A 
ATOM      5  C   UNL     1     -56.114 -36.432 -63.265  0.00  0.00    +0.000 A 
ATOM      6 BR   UNL     1     -57.160 -34.945 -62.712  0.00  0.00    +0.000 Br
ATOM      7  C   UNL     1     -54.910 -36.178 -63.920  0.00  0.00    +0.000 A 
ATOM      8  C   UNL     1     -54.123 -37.243 -64.344  0.00  0.00    +0.000 A 
ATOM      9  C   UNL     1     -54.540 -38.562 -64.137  0.00  0.00    +0.000 A 
ATOM     10 CL   UNL     1     -53.447 -39.775 -64.710  0.00  0.00    +0.000 Cl
ATOM     11  C   UNL     1     -55.768 -38.823 -63.495  0.00  0.00    +0.000 A 
ATOM     12  C   UNL     1     -56.298 -40.194 -63.263  0.00  0.00    +0.000 A 
ATOM     13  O   UNL     1     -55.637 -41.167 -63.605  0.00  0.00    +0.000 OA
ATOM     14  H   UNL     1     -58.118 -37.267 -61.782  0.00  0.00    +0.000 HD
ENDROOT
BRANCH   1  16
ATOM     15  C   UNL     1     -57.665 -42.559 -61.121  0.00  0.00    +0.000 C 
ATOM     16  C   UNL     1     -58.125 -41.795 -62.344  0.00  0.00    +0.000 C 
ATOM     17  O   UNL     1     -58.880 -42.344 -63.142  0.00  0.00    +0.000 OA
ENDBRANCH   1  16
BRANCH   2  18
ATOM     18  S   UNL     1     -59.704 -39.353 -61.041  0.00  0.00    +0.000 S 
ATOM     19  O   UNL     1     -59.826 -37.946 -60.523  0.00  0.00    +0.000 OA
BRANCH  18  20
ATOM     20  C   UNL     1     -61.019 -39.545 -62.297  0.00  0.00    +0.000 C 
BRANCH  20  21
ATOM     21  C   UNL     1     -62.143 -40.399 -61.811  0.00  0.00    +0.000 A 
ATOM     22  C   UNL     1     -63.543 -40.205 -61.941  0.00  0.00    +0.000 A 
ATOM     23  C   UNL     1     -64.102 -41.332 -61.391  0.00  0.00    +0.000 A 
ATOM     24  C   UNL     1     -65.485 -41.812 -61.193  0.00  0.00    +0.000 C 
ATOM     25  O   UNL     1     -63.111 -42.155 -60.960  0.00  0.00    +0.000 OA
ATOM     26  N   UNL     1     -61.881 -41.578 -61.226  0.00  0.00    +0.000 NA
ENDBRANCH  20  21
ENDBRANCH  18  20
ENDBRANCH   2  18
TORSDOF 4
ENDMDL
MODEL 17
REMARK VINA RESULT:    -4.836      5.087      6.333
REMARK INTER + INTRA:          -6.932
REMARK INTER:                  -6.307
REMARK INTRA:                  -0.625
REMARK UNBOUND:                -0.965
REMARK  Name = 
REMARK  6 active torsions:
REMARK  status: ('A' for Active; 'I' for Inactive)
REMARK    1  A    between atoms: C_1  and  C_2
REMARK    2  A    between atoms: C_2  and  C_4
REMARK    3  A    between atoms: C_5  and  S_6
REMARK    4  A    between atoms: S_6  and  C_8
REMARK    5  A    between atoms: C_8  and  C_9
REMARK    6  A    between atoms: C_11  and  C_12
REMARK                            x       y       z     vdW  Elec       q    Type
REMARK                         _______ _______ _______ _____ _____    ______ ____
ROOT
ATOM      1  C   UNL     1     -58.196 -39.664 -62.482  0.00  0.00    +0.000 A 
ATOM      2  C   UNL     1     -58.510 -38.424 -62.040  0.00  0.00    +0.000 A 
ATOM      3  N   UNL     1     -57.728 -37.313 -62.277  0.00  0.00    +0.000 N 
ATOM      4  C   UNL     1     -56.464 -37.387 -62.886  0.00  0.00    +0.000 A 
ATOM      5  C   UNL     1     -55.700 -36.222 -63.099  0.00  0.00    +0.000 A 
ATOM      6 BR   UNL     1     -56.322 -34.524 -62.514  0.00  0.00    +0.000 Br
ATOM      7  C   UNL     1     -54.468 -36.280 -63.749  0.00  0.00    +0.000 A 
ATOM      8  C   UNL     1     -53.986 -37.505 -64.196  0.00  0.00    +0.000 A 
ATOM      9  C   UNL     1     -54.736 -38.673 -64.017  0.00  0.00    +0.000 A 
ATOM     10 CL   UNL     1     -53.997 -40.117 -64.616  0.00  0.00    +0.000 Cl
ATOM     11  C   UNL     1     -55.993 -38.615 -63.380  0.00  0.00    +0.000 A 
ATOM     12  C   UNL     1     -56.865 -39.803 -63.177  0.00  0.00    +0.000 A 
ATOM     13  O   UNL     1     -56.481 -40.909 -63.540  0.00  0.00    +0.000 OA
ATOM     14  H   UNL     1     -57.861 -36.532 -61.633  0.00  0.00    +0.000 HD
ENDROOT
BRANCH   1  16
ATOM     15  C   UNL     1     -58.801 -41.783 -61.099  0.00  0.00    +0.000 C 
ATOM     16  C   UNL     1     -59.053 -40.887 -62.292  0.00  0.00    +0.000 C 
ATOM     17  O   UNL     1     -59.934 -41.192 -63.091  0.00  0.00    +0.000 OA
ENDBRANCH   1  16
BRANCH   2  18
ATOM     18  S   UNL     1     -59.942 -38.144 -60.936  0.00  0.00    +0.000 S 
ATOM     19  O   UNL     1     -59.384 -37.247 -59.864  0.00  0.00    +0.000 OA
BRANCH  18  20
ATOM     20  C   UNL     1     -60.947 -37.068 -62.021  0.00  0.00    +0.000 C 
BRANCH  20  21
ATOM     21  C   UNL     1     -61.998 -36.327 -61.263  0.00  0.00    +0.000 A 
ATOM     22  C   UNL     1     -62.291 -34.938 -61.253  0.00  0.00    +0.000 A 
ATOM     23  C   UNL     1     -63.402 -34.823 -60.454  0.00  0.00    +0.000 A 
ATOM     24  C   UNL     1     -64.246 -33.696 -60.010  0.00  0.00    +0.000 C 
ATOM     25  O   UNL     1     -63.761 -36.057 -60.012  0.00  0.00    +0.000 OA
ATOM     26  N   UNL     1     -62.889 -37.004 -60.521  0.00  0.00    +0.000 NA
ENDBRANCH  20  21
ENDBRANCH  18  20
ENDBRANCH   2  18
TORSDOF 4
ENDMDL
MODEL 18
REMARK VINA RESULT:    -4.804     14.992     18.262
REMARK INTER + INTRA:          -6.892
REMARK INTER:                  -5.895
REMARK INTRA:                  -0.997
REMARK UNBOUND:                -0.965
REMARK  Name = 
REMARK  6 active torsions:
REMARK  status: ('A' for Active; 'I' for Inactive)
REMARK    1  A    between atoms: C_1  and  C_2
REMARK    2  A    between atoms: C_2  and  C_4
REMARK    3  A    between atoms: C_5  and  S_6
REMARK    4  A    between atoms: S_6  and  C_8
REMARK    5  A    between atoms: C_8  and  C_9
REMARK    6  A    between atoms: C_11  and  C_12
REMARK                            x       y       z     vdW  Elec       q    Type
REMARK                         _______ _______ _______ _____ _____    ______ ____
ROOT
ATOM      1  C   UNL     1     -47.254 -23.892 -64.783  0.00  0.00    +0.000 A 
ATOM      2  C   UNL     1     -46.836 -24.876 -63.953  0.00  0.00    +0.000 A 
ATOM      3  N   UNL     1     -47.616 -25.401 -62.944  0.00  0.00    +0.000 N 
ATOM      4  C   UNL     1     -48.871 -24.871 -62.598  0.00  0.00    +0.000 A 
ATOM      5  C   UNL     1     -49.627 -25.440 -61.553  0.00  0.00    +0.000 A 
ATOM      6 BR   UNL     1     -48.950 -26.897 -60.537  0.00  0.00    +0.000 Br
ATOM      7  C   UNL     1     -50.894 -24.954 -61.236  0.00  0.00    +0.000 A 
ATOM      8  C   UNL     1     -51.422 -23.893 -61.964  0.00  0.00    +0.000 A 
ATOM      9  C   UNL     1     -50.701 -23.326 -63.021  0.00  0.00    +0.000 A 
ATOM     10 CL   UNL     1     -51.487 -22.009 -63.820  0.00  0.00    +0.000 Cl
ATOM     11  C   UNL     1     -49.428 -23.831 -63.359  0.00  0.00    +0.000 A 
ATOM     12  C   UNL     1     -48.611 -23.305 -64.485  0.00  0.00    +0.000 A 
ATOM     13  O   UNL     1     -49.025 -22.362 -65.149  0.00  0.00    +0.000 OA
ATOM     14  H   UNL     1     -47.111 -25.865 -62.189  0.00  0.00    +0.000 HD
ENDROOT
BRANCH   1  16
ATOM     15  C   UNL     1     -45.601 -22.105 -65.702  0.00  0.00    +0.000 C 
ATOM     16  C   UNL     1     -46.453 -23.336 -65.930  0.00  0.00    +0.000 C 
ATOM     17  O   UNL     1     -46.489 -23.837 -67.050  0.00  0.00    +0.000 OA
ENDBRANCH   1  16
BRANCH   2  18
ATOM     18  S   UNL     1     -45.113 -25.491 -64.002  0.00  0.00    +0.000 S 
ATOM     19  O   UNL     1     -44.839 -25.868 -62.571  0.00  0.00    +0.000 OA
BRANCH  18  20
ATOM     20  C   UNL     1     -45.384 -27.063 -64.895  0.00  0.00    +0.000 C 
BRANCH  20  21
ATOM     21  C   UNL     1     -45.542 -28.220 -63.964  0.00  0.00    +0.000 A 
ATOM     22  C   UNL     1     -44.590 -29.199 -63.575  0.00  0.00    +0.000 A 
ATOM     23  C   UNL     1     -45.242 -29.966 -62.641  0.00  0.00    +0.000 A 
ATOM     24  C   UNL     1     -44.872 -31.135 -61.820  0.00  0.00    +0.000 C 
ATOM     25  O   UNL     1     -46.502 -29.483 -62.472  0.00  0.00    +0.000 OA
ATOM     26  N   UNL     1     -46.692 -28.386 -63.294  0.00  0.00    +0.000 NA
ENDBRANCH  20  21
ENDBRANCH  18  20
ENDBRANCH   2  18
TORSDOF 4
ENDMDL
MODEL 19
REMARK VINA RESULT:    -4.791     15.727     17.915
REMARK INTER + INTRA:          -6.876
REMARK INTER:                  -5.869
REMARK INTRA:                  -1.007
REMARK UNBOUND:                -0.965
REMARK  Name = 
REMARK  6 active torsions:
REMARK  status: ('A' for Active; 'I' for Inactive)
REMARK    1  A    between atoms: C_1  and  C_2
REMARK    2  A    between atoms: C_2  and  C_4
REMARK    3  A    between atoms: C_5  and  S_6
REMARK    4  A    between atoms: S_6  and  C_8
REMARK    5  A    between atoms: C_8  and  C_9
REMARK    6  A    between atoms: C_11  and  C_12
REMARK                            x       y       z     vdW  Elec       q    Type
REMARK                         _______ _______ _______ _____ _____    ______ ____
ROOT
ATOM      1  C   UNL     1     -49.611 -25.312 -61.981  0.00  0.00    +0.000 A 
ATOM      2  C   UNL     1     -48.475 -25.809 -62.523  0.00  0.00    +0.000 A 
ATOM      3  N   UNL     1     -47.917 -25.328 -63.689  0.00  0.00    +0.000 N 
ATOM      4  C   UNL     1     -48.547 -24.365 -64.494  0.00  0.00    +0.000 A 
ATOM      5  C   UNL     1     -47.937 -23.911 -65.681  0.00  0.00    +0.000 A 
ATOM      6 BR   UNL     1     -46.278 -24.631 -66.265  0.00  0.00    +0.000 Br
ATOM      7  C   UNL     1     -48.530 -22.918 -66.459  0.00  0.00    +0.000 A 
ATOM      8  C   UNL     1     -49.741 -22.365 -66.058  0.00  0.00    +0.000 A 
ATOM      9  C   UNL     1     -50.355 -22.782 -64.871  0.00  0.00    +0.000 A 
ATOM     10 CL   UNL     1     -51.860 -22.009 -64.515  0.00  0.00    +0.000 Cl
ATOM     11  C   UNL     1     -49.746 -23.770 -64.070  0.00  0.00    +0.000 A 
ATOM     12  C   UNL     1     -50.317 -24.247 -62.781  0.00  0.00    +0.000 A 
ATOM     13  O   UNL     1     -51.389 -23.801 -62.389  0.00  0.00    +0.000 OA
ATOM     14  H   UNL     1     -47.291 -25.970 -64.178  0.00  0.00    +0.000 HD
ENDROOT
BRANCH   1  16
ATOM     15  C   UNL     1     -51.263 -26.866 -60.706  0.00  0.00    +0.000 C 
ATOM     16  C   UNL     1     -50.217 -25.772 -60.682  0.00  0.00    +0.000 C 
ATOM     17  O   UNL     1     -49.905 -25.269 -59.606  0.00  0.00    +0.000 OA
ENDBRANCH   1  16
BRANCH   2  18
ATOM     18  S   UNL     1     -47.660 -27.292 -61.826  0.00  0.00    +0.000 S 
ATOM     19  O   UNL     1     -47.146 -28.010 -63.044  0.00  0.00    +0.000 OA
BRANCH  18  20
ATOM     20  C   UNL     1     -46.204 -26.496 -61.057  0.00  0.00    +0.000 C 
BRANCH  20  21
ATOM     21  C   UNL     1     -45.006 -26.534 -61.947  0.00  0.00    +0.000 A 
ATOM     22  C   UNL     1     -43.967 -27.499 -62.018  0.00  0.00    +0.000 A 
ATOM     23  C   UNL     1     -43.179 -27.084 -63.063  0.00  0.00    +0.000 A 
ATOM     24  C   UNL     1     -41.951 -27.598 -63.702  0.00  0.00    +0.000 C 
ATOM     25  O   UNL     1     -43.705 -25.949 -63.593  0.00  0.00    +0.000 OA
ATOM     26  N   UNL     1     -44.854 -25.603 -62.901  0.00  0.00    +0.000 NA
ENDBRANCH  20  21
ENDBRANCH  18  20
ENDBRANCH   2  18
TORSDOF 4
ENDMDL
MODEL 20
REMARK VINA RESULT:    -4.756     16.144     17.392
REMARK INTER + INTRA:          -6.833
REMARK INTER:                  -6.157
REMARK INTRA:                  -0.675
REMARK UNBOUND:                -0.965
REMARK  Name = 
REMARK  6 active torsions:
REMARK  status: ('A' for Active; 'I' for Inactive)
REMARK    1  A    between atoms: C_1  and  C_2
REMARK    2  A    between atoms: C_2  and  C_4
REMARK    3  A    between atoms: C_5  and  S_6
REMARK    4  A    between atoms: S_6  and  C_8
REMARK    5  A    between atoms: C_8  and  C_9
REMARK    6  A    between atoms: C_11  and  C_12
REMARK                            x       y       z     vdW  Elec       q    Type
REMARK                         _______ _______ _______ _____ _____    ______ ____
ROOT
ATOM      1  C   UNL     1     -44.855 -27.486 -64.713  0.00  0.00    +0.000 A 
ATOM      2  C   UNL     1     -45.292 -26.471 -65.495  0.00  0.00    +0.000 A 
ATOM      3  N   UNL     1     -45.168 -26.465 -66.869  0.00  0.00    +0.000 N 
ATOM      4  C   UNL     1     -44.457 -27.450 -67.574  0.00  0.00    +0.000 A 
ATOM      5  C   UNL     1     -44.354 -27.394 -68.979  0.00  0.00    +0.000 A 
ATOM      6 BR   UNL     1     -45.114 -25.953 -69.958  0.00  0.00    +0.000 Br
ATOM      7  C   UNL     1     -43.695 -28.394 -69.691  0.00  0.00    +0.000 A 
ATOM      8  C   UNL     1     -43.133 -29.466 -69.007  0.00  0.00    +0.000 A 
ATOM      9  C   UNL     1     -43.242 -29.557 -67.615  0.00  0.00    +0.000 A 
ATOM     10 CL   UNL     1     -42.482 -30.941 -66.909  0.00  0.00    +0.000 Cl
ATOM     11  C   UNL     1     -43.928 -28.558 -66.893  0.00  0.00    +0.000 A 
ATOM     12  C   UNL     1     -44.114 -28.595 -65.417  0.00  0.00    +0.000 A 
ATOM     13  O   UNL     1     -43.627 -29.511 -64.765  0.00  0.00    +0.000 OA
ATOM     14  H   UNL     1     -45.204 -25.546 -67.312  0.00  0.00    +0.000 HD
ENDROOT
BRANCH   1  16
ATOM     15  C   UNL     1     -46.282 -28.176 -62.649  0.00  0.00    +0.000 C 
ATOM     16  C   UNL     1     -45.025 -27.554 -63.219  0.00  0.00    +0.000 C 
ATOM     17  O   UNL     1     -44.184 -27.097 -62.449  0.00  0.00    +0.000 OA
ENDBRANCH   1  16
BRANCH   2  18
ATOM     18  S   UNL     1     -45.951 -24.928 -64.767  0.00  0.00    +0.000 S 
ATOM     19  O   UNL     1     -44.736 -24.043 -64.672  0.00  0.00    +0.000 OA
BRANCH  18  20
ATOM     20  C   UNL     1     -46.912 -24.312 -66.196  0.00  0.00    +0.000 C 
BRANCH  20  21
ATOM     21  C   UNL     1     -48.211 -23.705 -65.782  0.00  0.00    +0.000 A 
ATOM     22  C   UNL     1     -48.968 -23.918 -64.599  0.00  0.00    +0.000 A 
ATOM     23  C   UNL     1     -50.022 -23.044 -64.700  0.00  0.00    +0.000 A 
ATOM     24  C   UNL     1     -51.182 -22.717 -63.847  0.00  0.00    +0.000 C 
ATOM     25  O   UNL     1     -49.912 -22.347 -65.861  0.00  0.00    +0.000 OA
ATOM     26  N   UNL     1     -48.775 -22.752 -66.539  0.00  0.00    +0.000 NA
ENDBRANCH  20  21
ENDBRANCH  18  20
ENDBRANCH   2  18
TORSDOF 4
ENDMDL
