=
 OpenBabel09162515433D

 26 28  0  0  0  0  0  0  0  0999 V2000
  -55.3390  -42.8360  -62.6520 C   0  0  0  0  0  0  0  0  0  0  0  0
  -55.1140  -41.6420  -63.2430 C   0  0  0  0  0  0  0  0  0  0  0  0
  -53.9570  -41.3390  -63.9340 N   0  0  0  0  0  0  0  0  0  0  0  0
  -52.8420  -42.1920  -63.9610 C   0  0  0  0  0  0  0  0  0  0  0  0
  -51.6670  -41.8190  -64.6410 C   0  0  0  0  0  0  0  0  0  0  0  0
  -51.5170  -40.1160  -65.4690 Br  0  0  0  0  0  0  0  0  0  0  0  0
  -50.5780  -42.6820  -64.7180 C   0  0  0  0  0  3  0  0  0  0  0  0
  -50.6540  -43.9390  -64.1240 C   0  0  0  0  0  3  0  0  0  0  0  0
  -51.8200  -44.3430  -63.4610 C   0  0  0  0  0  0  0  0  0  0  0  0
  -51.7580  -45.9250  -62.7670 Cl  0  0  0  0  0  0  0  0  0  0  0  0
  -52.9290  -43.4750  -63.3930 C   0  0  0  0  0  0  0  0  0  0  0  0
  -54.2050  -43.8290  -62.7100 C   0  0  0  0  0  0  0  0  0  0  0  0
  -54.3210  -44.9130  -62.1550 O   0  0  0  0  0  0  0  0  0  0  0  0
  -53.7450  -40.3420  -64.0170 H   0  0  0  0  0  0  0  0  0  0  0  0
  -57.7090  -43.9170  -62.6700 C   0  0  0  0  0  1  0  0  0  0  0  0
  -56.6050  -43.2070  -61.9220 C   0  0  0  0  0  0  0  0  0  0  0  0
  -56.7670  -42.9340  -60.7310 O   0  0  0  0  0  0  0  0  0  0  0  0
  -56.2700  -40.2480  -63.0350 S   0  0  1  0  0  0  0  0  0  0  0  0
  -55.4170  -39.1780  -62.4050 O   0  0  0  0  0  0  0  0  0  0  0  0
  -56.4720  -39.7620  -64.7880 C   0  0  0  0  0  2  0  0  0  0  0  0
  -56.8890  -40.9080  -65.6500 C   0  0  0  0  0  0  0  0  0  0  0  0
  -58.1170  -41.6190  -65.6950 C   0  0  0  0  0  3  0  0  0  0  0  0
  -57.9350  -42.5660  -66.6720 C   0  0  0  0  0  0  0  0  0  0  0  0
  -58.7520  -43.6700  -67.2080 C   0  0  0  0  0  1  0  0  0  0  0  0
  -56.7000  -42.4070  -67.2180 O   0  0  0  0  0  0  0  0  0  0  0  0
  -56.0450  -41.3660  -66.5860 N   0  0  0  0  0  0  0  0  0  0  0  0
  1 16  1  0  0  0  0
  2 18  1  0  0  0  0
  2  1  2  0  0  0  0
  3  2  1  0  0  0  0
  4  3  1  0  0  0  0
  4 11  1  0  0  0  0
  5  4  2  0  0  0  0
  6  5  1  0  0  0  0
  7  5  1  0  0  0  0
  7  8  2  0  0  0  0
  8  9  1  0  0  0  0
  9 11  2  0  0  0  0
  9 10  1  0  0  0  0
 11 12  1  0  0  0  0
 12  1  1  0  0  0  0
 12 13  2  0  0  0  0
 14  3  1  0  0  0  0
 15 16  1  0  0  0  0
 16 17  2  0  0  0  0
 18 19  2  1  0  0  0
 20 18  1  0  0  0  0
 21 20  1  0  0  0  0
 22 21  1  0  0  0  0
 23 22  2  0  0  0  0
 24 23  1  0  0  0  0
 25 23  1  0  0  0  0
 25 26  1  0  0  0  0
 26 21  2  0  0  0  0
M  END
>  <MODEL>
1

>  <REMARK>
 VINA RESULT:    -6.694      0.000      0.000
 INTER + INTRA:          -9.340
 INTER:                  -8.259
 INTRA:                  -1.082
 UNBOUND:                -1.082
  Name = 
  6 active torsions:
  status: ('A' for Active; 'I' for Inactive)
    1  A    between atoms: C_1  and  C_2
    2  A    between atoms: C_2  and  C_4
    3  A    between atoms: C_5  and  S_6
    4  A    between atoms: S_6  and  C_8
    5  A    between atoms: C_8  and  C_9
    6  A    between atoms: C_11  and  C_12
                            x       y       z     vdW  Elec       q    Type
                         _______ _______ _______ _____ _____    ______ ____

>  <TORSDO>
F 4

$$$$
