=
 OpenBabel09162515423D

 28 31  0  0  1  0  0  0  0  0999 V2000
  -55.6920  -42.2300  -76.9070 C   0  0  2  0  0  3  0  0  0  0  0  0
  -54.9280  -41.0500  -76.9910 N   0  0  0  0  0  0  0  0  0  0  0  0
  -53.5320  -41.0710  -76.7170 C   0  0  0  0  0  0  0  0  0  0  0  0
  -52.6510  -40.0610  -77.1450 C   0  0  0  0  0  0  0  0  0  0  0  0
  -53.2400  -38.6680  -78.2900 Br  0  0  0  0  0  0  0  0  0  0  0  0
  -51.3030  -40.0630  -76.7590 C   0  0  0  0  0  3  0  0  0  0  0  0
  -50.8140  -41.1000  -75.9570 C   0  0  0  0  0  3  0  0  0  0  0  0
  -51.6690  -42.1130  -75.5210 C   0  0  0  0  0  0  0  0  0  0  0  0
  -50.9530  -43.3840  -74.5970 Cl  0  0  0  0  0  0  0  0  0  0  0  0
  -53.0230  -42.0800  -75.8850 C   0  0  0  0  0  0  0  0  0  0  0  0
  -54.0180  -43.0580  -75.4030 C   0  0  0  0  0  0  0  0  0  0  0  0
  -53.9130  -43.6000  -74.3100 O   0  0  0  0  0  0  0  0  0  0  0  0
  -55.2200  -43.3200  -76.2610 C   0  0  2  0  0  3  0  0  0  0  0  0
  -55.1810  -40.4800  -77.8090 H   0  0  0  0  0  0  0  0  0  0  0  0
  -57.0670  -42.2540  -78.0860 S   0  0  2  0  0  0  0  0  0  0  0  0
  -56.7890  -41.0940  -79.0030 O   0  0  0  0  0  0  0  0  0  0  0  0
  -58.6200  -41.8970  -77.2140 C   0  0  0  0  0  2  0  0  0  0  0  0
  -59.0800  -41.5330  -72.1270 C   0  0  0  0  0  1  0  0  0  0  0  0
  -58.8150  -41.4720  -73.5760 C   0  0  0  0  0  0  0  0  0  0  0  0
  -59.1690  -42.2440  -74.6580 C   0  0  0  0  0  3  0  0  0  0  0  0
  -58.6480  -41.5530  -75.7740 C   0  0  0  0  0  0  0  0  0  0  0  0
  -57.9590  -40.4680  -75.3770 N   0  0  0  0  0  0  0  0  0  0  0  0
  -58.0690  -40.4220  -74.0030 O   0  0  0  0  0  0  0  0  0  0  0  0
  -55.5700  -44.7640  -76.3790 C   0  0  0  0  0  0  0  0  0  0  0  0
  -56.7230  -45.1350  -76.2490 O   0  0  0  0  0  0  0  0  0  0  0  0
  -54.5030  -45.7300  -76.7040 C   0  0  0  0  0  3  0  0  0  0  0  0
  -54.8450  -47.1900  -76.8540 C   0  0  0  0  0  2  0  0  0  0  0  0
  -54.0220  -46.7370  -75.6870 C   0  0  0  0  0  2  0  0  0  0  0  0
  1 15  1  6  0  0  0
  1 13  1  0  0  0  0
  2  1  1  0  0  0  0
  2  3  1  0  0  0  0
  3 10  1  0  0  0  0
  4  6  1  0  0  0  0
  4  3  2  0  0  0  0
  5  4  1  0  0  0  0
  6  7  2  0  0  0  0
  7  8  1  0  0  0  0
  8  9  1  0  0  0  0
 10  8  2  0  0  0  0
 10 11  1  0  0  0  0
 11 12  2  0  0  0  0
 13 24  1  6  0  0  0
 13 11  1  0  0  0  0
 14  2  1  0  0  0  0
 15 16  2  6  0  0  0
 15 17  1  0  0  0  0
 17 21  1  0  0  0  0
 19 18  1  0  0  0  0
 20 19  2  0  0  0  0
 21 22  2  0  0  0  0
 21 20  1  0  0  0  0
 22 23  1  0  0  0  0
 23 19  1  0  0  0  0
 24 25  2  0  0  0  0
 26 24  1  0  0  0  0
 26 28  1  0  0  0  0
 27 26  1  0  0  0  0
 27 28  1  0  0  0  0
M  END
>  <MODEL>
1

>  <REMARK>
 VINA RESULT:    -6.847      0.000      0.000
 INTER + INTRA:          -9.722
 INTER:                  -8.848
 INTRA:                  -0.873
 UNBOUND:                -0.873
  Name = 
  6 active torsions:
  status: ('A' for Active; 'I' for Inactive)
    1  A    between atoms: C_1  and  C_2
    2  A    between atoms: C_4  and  C_5
    3  A    between atoms: C_5  and  S_6
    4  A    between atoms: S_6  and  C_8
    5  A    between atoms: C_20  and  C_21
    6  A    between atoms: C_21  and  C_23
                            x       y       z     vdW  Elec       q    Type
                         _______ _______ _______ _____ _____    ______ ____

>  <TORSDO>
F 5

$$$$
