REMARK VINA RESULT:    -5.240     26.316     28.176
REMARK INTER + INTRA:          -7.185
REMARK INTER:                  -6.535
REMARK INTRA:                  -0.649
REMARK UNBOUND:                -0.720
REMARK  Name = 
REMARK  6 active torsions:
REMARK  status: ('A' for Active; 'I' for Inactive)
REMARK    1  A    between atoms: C_1  and  C_2
REMARK    2  A    between atoms: C_2  and  C_4
REMARK    3  A    between atoms: C_5  and  S_6
REMARK    4  A    between atoms: S_6  and  C_8
REMARK    5  A    between atoms: C_8  and  C_9
REMARK    6  A    between atoms: C_11  and  C_12
REMARK                            x       y       z     vdW  Elec       q    Type
REMARK                         _______ _______ _______ _____ _____    ______ ____
ROOT
ATOM      1  C   UNL     1     -66.567 -52.210 -53.017  0.00  0.00    +0.000 A 
ATOM      2  C   UNL     1     -67.566 -52.185 -53.933  0.00  0.00    +0.000 A 
ATOM      3  N   UNL     1     -67.693 -51.189 -54.885  0.00  0.00    +0.000 N 
ATOM      4  C   UNL     1     -66.893 -50.031 -54.890  0.00  0.00    +0.000 A 
ATOM      5  C   UNL     1     -67.099 -49.010 -55.833  0.00  0.00    +0.000 A 
ATOM      6 BR   UNL     1     -68.537 -49.102 -57.072  0.00  0.00    +0.000 Br
ATOM      7  C   UNL     1     -66.264 -47.893 -55.882  0.00  0.00    +0.000 A 
ATOM      8  C   UNL     1     -65.202 -47.789 -54.988  0.00  0.00    +0.000 A 
ATOM      9  C   UNL     1     -64.969 -48.793 -54.047  0.00  0.00    +0.000 A 
ATOM     10 CL   UNL     1     -63.622 -48.510 -52.998  0.00  0.00    +0.000 Cl
ATOM     11  C   UNL     1     -65.809 -49.926 -54.005  0.00  0.00    +0.000 A 
ATOM     12  C   UNL     1     -65.624 -51.034 -53.034  0.00  0.00    +0.000 A 
ATOM     13  O   UNL     1     -64.715 -50.970 -52.209  0.00  0.00    +0.000 OA
ATOM     14  H   UNL     1     -68.608 -51.101 -55.326  0.00  0.00    +0.000 HD
ENDROOT
BRANCH   1  16
ATOM     15  C   UNL     1     -66.919 -53.103 -50.596  0.00  0.00    +0.000 C 
ATOM     16  C   UNL     1     -66.358 -53.290 -51.988  0.00  0.00    +0.000 C 
ATOM     17  O   UNL     1     -65.727 -54.320 -52.248  0.00  0.00    +0.000 OA
ENDBRANCH   1  16
BRANCH   2  18
ATOM     18  S   UNL     1     -68.927 -53.403 -53.877  0.00  0.00    +0.000 S 
ATOM     19  O   UNL     1     -69.705 -53.016 -52.648  0.00  0.00    +0.000 OA
BRANCH  18  20
ATOM     20  C   UNL     1     -69.922 -52.837 -55.302  0.00  0.00    +0.000 C 
BRANCH  20  21
ATOM     21  C   UNL     1     -70.941 -53.844 -55.737  0.00  0.00    +0.000 A 
ATOM     22  C   UNL     1     -72.016 -53.726 -56.659  0.00  0.00    +0.000 A 
ATOM     23  C   UNL     1     -72.603 -54.966 -56.675  0.00  0.00    +0.000 A 
ATOM     24  C   UNL     1     -73.776 -55.552 -57.353  0.00  0.00    +0.000 C 
ATOM     25  O   UNL     1     -71.905 -55.795 -55.853  0.00  0.00    +0.000 OA
ATOM     26  N   UNL     1     -70.861 -55.100 -55.271  0.00  0.00    +0.000 NA
ENDBRANCH  20  21
ENDBRANCH  18  20
ENDBRANCH   2  18
TORSDOF 4
