REMARK VINA RESULT:    -5.288     17.424     20.664
REMARK INTER + INTRA:          -7.049
REMARK INTER:                  -6.171
REMARK INTRA:                  -0.878
REMARK UNBOUND:                -0.524
REMARK  Name = 
REMARK  6 active torsions:
REMARK  status: ('A' for Active; 'I' for Inactive)
REMARK    1  A    between atoms: C_1  and  C_2
REMARK    2  A    between atoms: C_2  and  C_4
REMARK    3  A    between atoms: C_5  and  S_6
REMARK    4  A    between atoms: S_6  and  C_8
REMARK    5  A    between atoms: C_8  and  C_9
REMARK    6  A    between atoms: C_11  and  C_12
REMARK                            x       y       z     vdW  Elec       q    Type
REMARK                         _______ _______ _______ _____ _____    ______ ____
ROOT
ATOM      1  C   UNL     1     -51.855 -43.253 -84.065  0.00  0.00    +0.000 A 
ATOM      2  C   UNL     1     -52.973 -42.852 -84.710  0.00  0.00    +0.000 A 
ATOM      3  N   UNL     1     -53.950 -42.064 -84.129  0.00  0.00    +0.000 N 
ATOM      4  C   UNL     1     -53.934 -41.713 -82.772  0.00  0.00    +0.000 A 
ATOM      5  C   UNL     1     -54.972 -40.939 -82.217  0.00  0.00    +0.000 A 
ATOM      6 BR   UNL     1     -56.467 -40.414 -83.264  0.00  0.00    +0.000 Br
ATOM      7  C   UNL     1     -54.936 -40.539 -80.885  0.00  0.00    +0.000 A 
ATOM      8  C   UNL     1     -53.851 -40.901 -80.088  0.00  0.00    +0.000 A 
ATOM      9  C   UNL     1     -52.798 -41.651 -80.622  0.00  0.00    +0.000 A 
ATOM     10 CL   UNL     1     -51.524 -42.020 -79.510  0.00  0.00    +0.000 Cl
ATOM     11  C   UNL     1     -52.827 -42.049 -81.973  0.00  0.00    +0.000 A 
ATOM     12  C   UNL     1     -51.750 -42.855 -82.615  0.00  0.00    +0.000 A 
ATOM     13  O   UNL     1     -50.795 -43.237 -81.950  0.00  0.00    +0.000 OA
ATOM     14  H   UNL     1     -54.874 -42.127 -84.557  0.00  0.00    +0.000 HD
ENDROOT
BRANCH   1  16
ATOM     15  C   UNL     1     -49.621 -43.398 -85.400  0.00  0.00    +0.000 C 
ATOM     16  C   UNL     1     -50.762 -44.090 -84.685  0.00  0.00    +0.000 C 
ATOM     17  O   UNL     1     -50.781 -45.319 -84.635  0.00  0.00    +0.000 OA
ENDBRANCH   1  16
BRANCH   2  18
ATOM     18  S   UNL     1     -53.378 -43.470 -86.376  0.00  0.00    +0.000 S 
ATOM     19  O   UNL     1     -54.868 -43.678 -86.322  0.00  0.00    +0.000 OA
BRANCH  18  20
ATOM     20  C   UNL     1     -53.119 -41.936 -87.338  0.00  0.00    +0.000 C 
BRANCH  20  21
ATOM     21  C   UNL     1     -54.389 -41.191 -87.587  0.00  0.00    +0.000 A 
ATOM     22  C   UNL     1     -55.004 -40.154 -86.840  0.00  0.00    +0.000 A 
ATOM     23  C   UNL     1     -56.135 -39.835 -87.552  0.00  0.00    +0.000 A 
ATOM     24  C   UNL     1     -57.251 -38.892 -87.357  0.00  0.00    +0.000 C 
ATOM     25  O   UNL     1     -56.182 -40.600 -88.674  0.00  0.00    +0.000 OA
ATOM     26  N   UNL     1     -55.089 -41.446 -88.704  0.00  0.00    +0.000 NA
ENDBRANCH  20  21
ENDBRANCH  18  20
ENDBRANCH   2  18
TORSDOF 4
