=
 OpenBabel09162515373D

 26 28  0  0  0  0  0  0  0  0999 V2000
  -55.9730  -42.8630  -62.8450 C   0  0  0  0  0  0  0  0  0  0  0  0
  -55.7950  -41.7030  -63.5140 C   0  0  0  0  0  0  0  0  0  0  0  0
  -54.5980  -41.3370  -64.1040 N   0  0  0  0  0  0  0  0  0  0  0  0
  -53.4180  -42.0790  -63.9520 C   0  0  0  0  0  0  0  0  0  0  0  0
  -52.2150  -41.6450  -64.5410 C   0  0  0  0  0  0  0  0  0  0  0  0
  -52.1280  -40.0020  -65.4920 Br  0  0  0  0  0  0  0  0  0  0  0  0
  -51.0530  -42.4030  -64.4420 C   0  0  0  0  0  3  0  0  0  0  0  0
  -51.0800  -43.6170  -63.7570 C   0  0  0  0  0  3  0  0  0  0  0  0
  -52.2690  -44.0790  -63.1810 C   0  0  0  0  0  0  0  0  0  0  0  0
  -52.1440  -45.6010  -62.3670 Cl  0  0  0  0  0  0  0  0  0  0  0  0
  -53.4500  -43.3180  -63.2890 C   0  0  0  0  0  0  0  0  0  0  0  0
  -54.7530  -43.7350  -62.6970 C   0  0  0  0  0  0  0  0  0  0  0  0
  -54.8240  -44.7720  -62.0490 O   0  0  0  0  0  0  0  0  0  0  0  0
  -54.4730  -40.3350  -64.2520 H   0  0  0  0  0  0  0  0  0  0  0  0
  -57.7180  -42.6550  -60.9200 C   0  0  0  0  0  1  0  0  0  0  0  0
  -57.2750  -43.2990  -62.2160 C   0  0  0  0  0  0  0  0  0  0  0  0
  -57.9770  -44.1720  -62.7230 O   0  0  0  0  0  0  0  0  0  0  0  0
  -57.0900  -40.4210  -63.5500 S   0  0  1  0  0  0  0  0  0  0  0  0
  -56.4890  -39.3370  -64.4030 O   0  0  0  0  0  0  0  0  0  0  0  0
  -58.3210  -41.2670  -64.6060 C   0  0  0  0  0  2  0  0  0  0  0  0
  -57.7100  -41.8850  -65.8200 C   0  0  0  0  0  0  0  0  0  0  0  0
  -56.9850  -41.2900  -66.8840 C   0  0  0  0  0  3  0  0  0  0  0  0
  -56.6460  -42.3390  -67.7050 C   0  0  0  0  0  0  0  0  0  0  0  0
  -55.9370  -42.4610  -68.9910 C   0  0  0  0  0  1  0  0  0  0  0  0
  -57.1030  -43.4950  -67.1570 O   0  0  0  0  0  0  0  0  0  0  0  0
  -57.7640  -43.2170  -65.9740 N   0  0  0  0  0  0  0  0  0  0  0  0
  1 12  1  0  0  0  0
  1 16  1  0  0  0  0
  2  1  2  0  0  0  0
  3  4  1  0  0  0  0
  3  2  1  0  0  0  0
  4 11  1  0  0  0  0
  5  7  1  0  0  0  0
  5  4  2  0  0  0  0
  6  5  1  0  0  0  0
  7  8  2  0  0  0  0
  8  9  1  0  0  0  0
  9 10  1  0  0  0  0
 11  9  2  0  0  0  0
 11 12  1  0  0  0  0
 12 13  2  0  0  0  0
 14  3  1  0  0  0  0
 16 15  1  0  0  0  0
 17 16  2  0  0  0  0
 18 19  2  6  0  0  0
 18  2  1  0  0  0  0
 20 18  1  0  0  0  0
 21 20  1  0  0  0  0
 22 21  1  0  0  0  0
 23 25  1  0  0  0  0
 23 22  2  0  0  0  0
 24 23  1  0  0  0  0
 25 26  1  0  0  0  0
 26 21  2  0  0  0  0
M  END
>  <MODEL>
1

>  <REMARK>
 VINA RESULT:    -7.236      0.000      0.000
 INTER + INTRA:          -9.452
 INTER:                  -8.928
 INTRA:                  -0.524
 UNBOUND:                -0.524
  Name = 
  6 active torsions:
  status: ('A' for Active; 'I' for Inactive)
    1  A    between atoms: C_1  and  C_2
    2  A    between atoms: C_2  and  C_4
    3  A    between atoms: C_5  and  S_6
    4  A    between atoms: S_6  and  C_8
    5  A    between atoms: C_8  and  C_9
    6  A    between atoms: C_11  and  C_12
                            x       y       z     vdW  Elec       q    Type
                         _______ _______ _______ _____ _____    ______ ____

>  <TORSDO>
F 4

$$$$
