=
 OpenBabel09172514013D

 28 30  0  0  0  0  0  0  0  0999 V2000
  -54.1280  -43.0330  -75.1820 C   0  0  0  0  0  0  0  0  0  0  0  0
  -54.6470  -42.6320  -76.3600 C   0  0  0  0  0  0  0  0  0  0  0  0
  -55.7700  -41.8330  -76.4500 N   0  0  0  0  0  0  0  0  0  0  0  0
  -56.5280  -41.4270  -75.3480 C   0  0  0  0  0  0  0  0  0  0  0  0
  -57.6520  -40.5940  -75.4980 C   0  0  0  0  0  0  0  0  0  0  0  0
  -58.2320  -40.0270  -77.2140 Br  0  0  0  0  0  0  0  0  0  0  0  0
  -58.3740  -40.1550  -74.3880 C   0  0  0  0  0  3  0  0  0  0  0  0
  -57.9820  -40.5480  -73.1100 C   0  0  0  0  0  3  0  0  0  0  0  0
  -56.8620  -41.3690  -72.9350 C   0  0  0  0  0  0  0  0  0  0  0  0
  -56.5000  -41.7750  -71.2930 Cl  0  0  0  0  0  0  0  0  0  0  0  0
  -56.1220  -41.7980  -74.0540 C   0  0  0  0  0  0  0  0  0  0  0  0
  -54.9040  -42.6550  -73.9480 C   0  0  0  0  0  0  0  0  0  0  0  0
  -54.5480  -43.0910  -72.8600 O   0  0  0  0  0  0  0  0  0  0  0  0
  -56.1550  -41.7170  -77.3940 H   0  0  0  0  0  0  0  0  0  0  0  0
  -52.9610  -45.3410  -75.1000 C   0  0  0  0  0  1  0  0  0  0  0  0
  -52.8670  -43.8330  -75.0340 C   0  0  0  0  0  0  0  0  0  0  0  0
  -51.7840  -43.2930  -74.8150 O   0  0  0  0  0  0  0  0  0  0  0  0
  -54.0400  -43.2170  -77.9740 S   0  0  1  0  0  0  0  0  0  0  0  0
  -55.3060  -43.5700  -78.7130 O   0  0  0  0  0  0  0  0  0  0  0  0
  -53.4040  -41.6560  -78.6830 C   0  0  0  0  0  2  0  0  0  0  0  0
  -52.4070  -40.9590  -77.7720 C   0  0  0  0  0  0  0  0  0  0  0  0
  -51.1490  -41.5230  -77.5110 C   0  0  0  0  0  3  0  0  0  0  0  0
  -50.2280  -40.8770  -76.6790 C   0  0  0  0  0  3  0  0  0  0  0  0
  -50.5400  -39.6420  -76.1070 C   0  0  0  0  0  0  0  0  0  0  0  0
  -51.7870  -39.0630  -76.3710 C   0  0  0  0  0  3  0  0  0  0  0  0
  -52.7120  -39.7160  -77.1940 C   0  0  0  0  0  3  0  0  0  0  0  0
  -49.5940  -38.9760  -75.2530 C   0  0  0  0  0  0  0  0  0  0  0  0
  -48.8270  -38.4430  -74.5660 N   0  0  0  0  0  0  0  0  0  0  0  0
  1 16  1  0  0  0  0
  1 12  1  0  0  0  0
  2  1  2  0  0  0  0
  3  2  1  0  0  0  0
  3  4  1  0  0  0  0
  4 11  1  0  0  0  0
  5  4  2  0  0  0  0
  5  7  1  0  0  0  0
  6  5  1  0  0  0  0
  7  8  2  0  0  0  0
  8  9  1  0  0  0  0
  9 10  1  0  0  0  0
 11 12  1  0  0  0  0
 11  9  2  0  0  0  0
 12 13  2  0  0  0  0
 14  3  1  0  0  0  0
 15 16  1  0  0  0  0
 16 17  2  0  0  0  0
 18 19  2  6  0  0  0
 18  2  1  0  0  0  0
 20 18  1  0  0  0  0
 20 21  1  0  0  0  0
 21 22  2  0  0  0  0
 21 26  1  0  0  0  0
 22 23  1  0  0  0  0
 23 24  2  0  0  0  0
 24 27  1  0  0  0  0
 25 24  1  0  0  0  0
 26 25  2  0  0  0  0
 27 28  3  0  0  0  0
M  END
>  <MODEL>
1

>  <REMARK>
 VINA RESULT:    -7.232      0.000      0.000
 INTER + INTRA:         -10.526
 INTER:                  -9.346
 INTRA:                  -1.180
 UNBOUND:                -1.180
  Name = 
  6 active torsions:
  status: ('A' for Active; 'I' for Inactive)
    1  A    between atoms: C_1  and  C_2
    2  A    between atoms: C_2  and  C_4
    3  A    between atoms: C_5  and  S_6
    4  A    between atoms: S_6  and  C_8
    5  A    between atoms: C_8  and  C_9
    6  A    between atoms: C_12  and  C_13
                            x       y       z     vdW  Elec       q    Type
                         _______ _______ _______ _____ _____    ______ ____

>  <TORSDO>
F 5

$$$$
