REMARK VINA RESULT:    -5.844     14.680     15.773
REMARK INTER + INTRA:          -7.891
REMARK INTER:                  -7.179
REMARK INTRA:                  -0.712
REMARK UNBOUND:                -0.681
REMARK  Name = 
REMARK  6 active torsions:
REMARK  status: ('A' for Active; 'I' for Inactive)
REMARK    1  A    between atoms: C_1  and  C_2
REMARK    2  A    between atoms: C_2  and  C_4
REMARK    3  A    between atoms: C_5  and  S_6
REMARK    4  A    between atoms: S_6  and  C_8
REMARK    5  A    between atoms: C_8  and  C_9
REMARK    6  A    between atoms: C_11  and  C_12
REMARK                            x       y       z     vdW  Elec       q    Type
REMARK                         _______ _______ _______ _____ _____    ______ ____
ROOT
ATOM      1  C   UNL     1     -53.913 -42.833 -76.700  0.00  0.00    +0.000 A 
ATOM      2  C   UNL     1     -54.369 -43.819 -77.504  0.00  0.00    +0.000 A 
ATOM      3  N   UNL     1     -54.597 -43.654 -78.856  0.00  0.00    +0.000 N 
ATOM      4  C   UNL     1     -54.506 -42.406 -79.497  0.00  0.00    +0.000 A 
ATOM      5  C   UNL     1     -54.764 -42.282 -80.874  0.00  0.00    +0.000 A 
ATOM      6 BR   UNL     1     -55.305 -43.784 -81.907  0.00  0.00    +0.000 Br
ATOM      7  C   UNL     1     -54.625 -41.058 -81.525  0.00  0.00    +0.000 A 
ATOM      8  C   UNL     1     -54.223 -39.940 -80.803  0.00  0.00    +0.000 A 
ATOM      9  C   UNL     1     -53.938 -40.039 -79.436  0.00  0.00    +0.000 A 
ATOM     10 CL   UNL     1     -53.459 -38.560 -78.675  0.00  0.00    +0.000 Cl
ATOM     11  C   UNL     1     -54.056 -41.282 -78.781  0.00  0.00    +0.000 A 
ATOM     12  C   UNL     1     -53.754 -41.478 -77.336  0.00  0.00    +0.000 A 
ATOM     13  O   UNL     1     -53.415 -40.521 -76.648  0.00  0.00    +0.000 OA
ATOM     14  H   UNL     1     -55.248 -44.316 -79.277  0.00  0.00    +0.000 HD
ENDROOT
BRANCH   1  16
ATOM     15  C   UNL     1     -52.238 -43.500 -74.822  0.00  0.00    +0.000 C 
ATOM     16  C   UNL     1     -53.606 -42.998 -75.235  0.00  0.00    +0.000 C 
ATOM     17  O   UNL     1     -54.441 -42.748 -74.365  0.00  0.00    +0.000 OA
ENDBRANCH   1  16
BRANCH   2  18
ATOM     18  S   UNL     1     -54.901 -45.429 -76.827  0.00  0.00    +0.000 S 
ATOM     19  O   UNL     1     -56.251 -45.128 -76.233  0.00  0.00    +0.000 OA
BRANCH  18  20
ATOM     20  C   UNL     1     -55.229 -46.319 -78.391  0.00  0.00    +0.000 C 
BRANCH  20  21
ATOM     21  C   UNL     1     -55.737 -47.698 -78.131  0.00  0.00    +0.000 A 
ATOM     22  C   UNL     1     -56.803 -48.395 -78.760  0.00  0.00    +0.000 A 
ATOM     23  C   UNL     1     -56.808 -49.631 -78.161  0.00  0.00    +0.000 A 
ATOM     24  C   UNL     1     -57.635 -50.846 -78.299  0.00  0.00    +0.000 C 
ATOM     25  O   UNL     1     -55.805 -49.685 -77.245  0.00  0.00    +0.000 OA
ATOM     26  N   UNL     1     -55.126 -48.480 -77.229  0.00  0.00    +0.000 NA
ENDBRANCH  20  21
ENDBRANCH  18  20
ENDBRANCH   2  18
TORSDOF 4
