REMARK VINA RESULT:    -5.261      4.319      6.504
REMARK INTER + INTRA:          -7.796
REMARK INTER:                  -6.874
REMARK INTRA:                  -0.922
REMARK UNBOUND:                -0.997
REMARK  Name = 
REMARK  8 active torsions:
REMARK  status: ('A' for Active; 'I' for Inactive)
REMARK    1  A    between atoms: C_1  and  C_2
REMARK    2  A    between atoms: C_4  and  C_5
REMARK    3  A    between atoms: C_5  and  S_6
REMARK    4  A    between atoms: S_6  and  C_8
REMARK    5  A    between atoms: C_20  and  C_21
REMARK    6  A    between atoms: C_21  and  C_23
REMARK    7  A    between atoms: C_23  and  C_24
REMARK    8  A    between atoms: C_23  and  C_25
REMARK                            x       y       z     vdW  Elec       q    Type
REMARK                         _______ _______ _______ _____ _____    ______ ____
ROOT
ATOM      1  C   UNL     1     -57.964 -44.863 -77.581  0.00  0.00    +0.000 A 
ATOM      2  N   UNL     1     -56.901 -45.394 -76.855  0.00  0.00    +0.000 N 
ATOM      3  C   UNL     1     -56.490 -46.734 -77.015  0.00  0.00    +0.000 A 
ATOM      4  C   UNL     1     -55.218 -47.180 -76.606  0.00  0.00    +0.000 A 
ATOM      5 CL   UNL     1     -54.033 -46.061 -76.032  0.00  0.00    +0.000 Cl
ATOM      6  C   UNL     1     -54.872 -48.529 -76.678  0.00  0.00    +0.000 A 
ATOM      7  C   UNL     1     -55.798 -49.454 -77.167  0.00  0.00    +0.000 A 
ATOM      8  C   UNL     1     -57.062 -49.028 -77.593  0.00  0.00    +0.000 A 
ATOM      9 CL   UNL     1     -58.094 -50.251 -78.238  0.00  0.00    +0.000 Cl
ATOM     10  C   UNL     1     -57.410 -47.671 -77.505  0.00  0.00    +0.000 A 
ATOM     11  C   UNL     1     -58.745 -47.119 -77.850  0.00  0.00    +0.000 A 
ATOM     12  O   UNL     1     -59.733 -47.838 -77.753  0.00  0.00    +0.000 OA
ATOM     13  C   UNL     1     -58.869 -45.649 -78.231  0.00  0.00    +0.000 A 
ATOM     14  H   UNL     1     -56.145 -44.719 -76.680  0.00  0.00    +0.000 HD
ENDROOT
BRANCH   1  15
ATOM     15  S   UNL     1     -57.816 -43.037 -77.736  0.00  0.00    +0.000 S 
ATOM     16  O   UNL     1     -56.964 -42.852 -78.962  0.00  0.00    +0.000 OA
BRANCH  15  17
ATOM     17  C   UNL     1     -56.791 -42.586 -76.278  0.00  0.00    +0.000 C 
BRANCH  17  21
ATOM     18  C   UNL     1     -53.219 -39.134 -77.713  0.00  0.00    +0.000 C 
ATOM     19  C   UNL     1     -54.080 -40.237 -77.237  0.00  0.00    +0.000 A 
ATOM     20  C   UNL     1     -55.433 -40.409 -77.054  0.00  0.00    +0.000 A 
ATOM     21  C   UNL     1     -55.578 -41.753 -76.608  0.00  0.00    +0.000 A 
ATOM     22  N   UNL     1     -54.370 -42.332 -76.501  0.00  0.00    +0.000 NA
ATOM     23  O   UNL     1     -53.443 -41.388 -76.899  0.00  0.00    +0.000 OA
ENDBRANCH  17  21
ENDBRANCH  15  17
ENDBRANCH   1  15
BRANCH  13  24
ATOM     24  C   UNL     1     -59.942 -45.348 -79.256  0.00  0.00    +0.000 C 
ATOM     25  O   UNL     1     -59.779 -45.687 -80.435  0.00  0.00    +0.000 OA
BRANCH  24  26
ATOM     26  C   UNL     1     -61.161 -44.505 -78.929  0.00  0.00    +0.000 C 
ATOM     27  C   UNL     1     -61.353 -43.446 -79.999  0.00  0.00    +0.000 C 
ATOM     28  C   UNL     1     -62.395 -45.367 -78.695  0.00  0.00    +0.000 C 
ENDBRANCH  24  26
ENDBRANCH  13  24
TORSDOF 5
