REMARK  Name = 
REMARK  6 active torsions:
REMARK  status: ('A' for Active; 'I' for Inactive)
REMARK    1  A    between atoms: C_1  and  C_2
REMARK    2  A    between atoms: C_2  and  C_4
REMARK    3  A    between atoms: C_5  and  S_6
REMARK    4  A    between atoms: S_6  and  C_8
REMARK    5  A    between atoms: C_8  and  C_9
REMARK    6  A    between atoms: C_11  and  C_12
REMARK                            x       y       z     vdW  Elec       q    Type
REMARK                         _______ _______ _______ _____ _____    ______ ____
ROOT
ATOM      1  C   UNL     1       3.169   1.290   0.221  0.00  0.00    +0.000 A 
ATOM      2  C   UNL     1       2.925   2.053   1.312  0.00  0.00    +0.000 A 
ATOM      3  N   UNL     1       3.616   3.212   1.597  0.00  0.00    +0.000 N 
ATOM      4  C   UNL     1       4.728   3.639   0.852  0.00  0.00    +0.000 A 
ATOM      5  C   UNL     1       5.404   4.829   1.189  0.00  0.00    +0.000 A 
ATOM      6 BR   UNL     1       4.878   5.859   2.697  0.00  0.00    +0.000 Br
ATOM      7  C   UNL     1       6.476   5.287   0.425  0.00  0.00    +0.000 A 
ATOM      8  C   UNL     1       6.883   4.561  -0.689  0.00  0.00    +0.000 A 
ATOM      9  C   UNL     1       6.213   3.389  -1.058  0.00  0.00    +0.000 A 
ATOM     10 CL   UNL     1       6.845   2.594  -2.458  0.00  0.00    +0.000 Cl
ATOM     11  C   UNL     1       5.114   2.935  -0.300  0.00  0.00    +0.000 A 
ATOM     12  C   UNL     1       4.330   1.717  -0.641  0.00  0.00    +0.000 A 
ATOM     13  O   UNL     1       4.656   1.034  -1.605  0.00  0.00    +0.000 OA
ATOM     14  H   UNL     1       3.601   3.508   2.574  0.00  0.00    +0.000 HD
ENDROOT
BRANCH   1  16
ATOM     15  C   UNL     1       2.412  -0.417  -1.591  0.00  0.00    +0.000 C 
ATOM     16  C   UNL     1       2.398   0.052  -0.152  0.00  0.00    +0.000 C 
ATOM     17  O   UNL     1       1.738  -0.574   0.673  0.00  0.00    +0.000 OA
ENDBRANCH   1  16
BRANCH   2  18
ATOM     18  S   UNL     1       1.746   1.514   2.603  0.00  0.00    +0.000 S 
ATOM     19  O   UNL     1       2.595   1.452   3.844  0.00  0.00    +0.000 OA
BRANCH  18  20
ATOM     20  C   UNL     1       0.749   3.040   2.750  0.00  0.00    +0.000 C 
BRANCH  20  21
ATOM     21  C   UNL     1      -0.331   2.911   3.773  0.00  0.00    +0.000 A 
ATOM     22  C   UNL     1      -0.230   2.602   5.155  0.00  0.00    +0.000 A 
ATOM     23  C   UNL     1      -1.515   2.701   5.628  0.00  0.00    +0.000 A 
ATOM     24  C   UNL     1      -2.149   2.527   6.950  0.00  0.00    +0.000 C 
ATOM     25  O   UNL     1      -2.339   3.050   4.605  0.00  0.00    +0.000 OA
ATOM     26  N   UNL     1      -1.601   3.189   3.442  0.00  0.00    +0.000 NA
ENDBRANCH  20  21
ENDBRANCH  18  20
ENDBRANCH   2  18
TORSDOF 4
