REMARK VINA RESULT:    -7.243     10.166     12.541
REMARK INTER + INTRA:         -10.236
REMARK INTER:                  -9.331
REMARK INTRA:                  -0.905
REMARK UNBOUND:                -0.876
REMARK  Name = 
REMARK  6 active torsions:
REMARK  status: ('A' for Active; 'I' for Inactive)
REMARK    1  A    between atoms: C_1  and  C_2
REMARK    2  A    between atoms: C_4  and  C_5
REMARK    3  A    between atoms: C_5  and  S_6
REMARK    4  A    between atoms: S_6  and  C_8
REMARK    5  A    between atoms: C_20  and  C_21
REMARK    6  A    between atoms: C_21  and  C_23
REMARK                            x       y       z     vdW  Elec       q    Type
REMARK                         _______ _______ _______ _____ _____    ______ ____
ROOT
ATOM      1  C   UNL     1     -55.475 -42.030 -63.195  0.00  0.00    +0.000 A 
ATOM      2  N   UNL     1     -54.696 -43.203 -63.186  0.00  0.00    +0.000 N 
ATOM      3  C   UNL     1     -53.305 -43.150 -63.474  0.00  0.00    +0.000 A 
ATOM      4  C   UNL     1     -52.406 -44.171 -63.112  0.00  0.00    +0.000 A 
ATOM      5 BR   UNL     1     -52.965 -45.633 -62.040  0.00  0.00    +0.000 Br
ATOM      6  C   UNL     1     -51.063 -44.130 -63.512  0.00  0.00    +0.000 A 
ATOM      7  C   UNL     1     -50.596 -43.043 -64.260  0.00  0.00    +0.000 A 
ATOM      8  C   UNL     1     -51.468 -42.018 -64.629  0.00  0.00    +0.000 A 
ATOM      9 CL   UNL     1     -50.778 -40.689 -65.489  0.00  0.00    +0.000 Cl
ATOM     10  C   UNL     1     -52.818 -42.089 -64.253  0.00  0.00    +0.000 A 
ATOM     11  C   UNL     1     -53.829 -41.098 -64.668  0.00  0.00    +0.000 A 
ATOM     12  O   UNL     1     -53.743 -40.495 -65.731  0.00  0.00    +0.000 OA
ATOM     13  C   UNL     1     -55.025 -40.900 -63.784  0.00  0.00    +0.000 A 
ATOM     14  H   UNL     1     -54.933 -43.822 -62.398  0.00  0.00    +0.000 HD
ENDROOT
BRANCH   1  15
ATOM     15  S   UNL     1     -56.838 -42.089 -62.001  0.00  0.00    +0.000 S 
ATOM     16  O   UNL     1     -56.599 -43.360 -61.232  0.00  0.00    +0.000 OA
BRANCH  15  17
ATOM     17  C   UNL     1     -58.413 -42.277 -62.887  0.00  0.00    +0.000 C 
BRANCH  17  21
ATOM     18  C   UNL     1     -58.950 -42.572 -67.971  0.00  0.00    +0.000 C 
ATOM     19  C   UNL     1     -58.664 -42.654 -66.526  0.00  0.00    +0.000 A 
ATOM     20  C   UNL     1     -58.995 -41.892 -65.430  0.00  0.00    +0.000 A 
ATOM     21  C   UNL     1     -58.465 -42.603 -64.331  0.00  0.00    +0.000 A 
ATOM     22  N   UNL     1     -57.794 -43.690 -64.751  0.00  0.00    +0.000 NA
ATOM     23  O   UNL     1     -57.924 -43.718 -66.124  0.00  0.00    +0.000 OA
ENDBRANCH  17  21
ENDBRANCH  15  17
ENDBRANCH   1  15
BRANCH  13  24
ATOM     24  C   UNL     1     -55.390 -39.469 -63.581  0.00  0.00    +0.000 C 
ATOM     25  O   UNL     1     -56.544 -39.100 -63.713  0.00  0.00    +0.000 OA
BRANCH  24  26
ATOM     26  C   UNL     1     -54.340 -38.518 -63.172  0.00  0.00    +0.000 C 
ATOM     27  C   UNL     1     -54.721 -37.109 -62.797  0.00  0.00    +0.000 C 
ATOM     28  C   UNL     1     -53.946 -37.358 -64.055  0.00  0.00    +0.000 C 
ENDBRANCH  24  26
ENDBRANCH  13  24
TORSDOF 5
