REMARK VINA RESULT:    -6.547     12.141     14.092
REMARK INTER + INTRA:          -9.371
REMARK INTER:                  -8.305
REMARK INTRA:                  -1.066
REMARK UNBOUND:                -0.910
REMARK  Name = 
REMARK  6 active torsions:
REMARK  status: ('A' for Active; 'I' for Inactive)
REMARK    1  A    between atoms: C_1  and  C_2
REMARK    2  A    between atoms: C_4  and  C_5
REMARK    3  A    between atoms: C_5  and  S_6
REMARK    4  A    between atoms: S_6  and  C_8
REMARK    5  A    between atoms: C_20  and  C_21
REMARK    6  A    between atoms: C_21  and  C_23
REMARK                            x       y       z     vdW  Elec       q    Type
REMARK                         _______ _______ _______ _____ _____    ______ ____
ROOT
ATOM      1  C   UNL     1     -56.522 -42.713 -62.867  0.00  0.00    +0.000 A 
ATOM      2  N   UNL     1     -55.482 -43.662 -62.863  0.00  0.00    +0.000 N 
ATOM      3  C   UNL     1     -54.147 -43.275 -63.165  0.00  0.00    +0.000 A 
ATOM      4  C   UNL     1     -53.025 -44.046 -62.809  0.00  0.00    +0.000 A 
ATOM      5 BR   UNL     1     -53.203 -45.595 -61.728  0.00  0.00    +0.000 Br
ATOM      6  C   UNL     1     -51.735 -43.683 -63.222  0.00  0.00    +0.000 A 
ATOM      7  C   UNL     1     -51.552 -42.520 -63.978  0.00  0.00    +0.000 A 
ATOM      8  C   UNL     1     -52.649 -41.738 -64.341  0.00  0.00    +0.000 A 
ATOM      9 CL   UNL     1     -52.310 -40.286 -65.211  0.00  0.00    +0.000 Cl
ATOM     10  C   UNL     1     -53.938 -42.131 -63.951  0.00  0.00    +0.000 A 
ATOM     11  C   UNL     1     -55.164 -41.417 -64.359  0.00  0.00    +0.000 A 
ATOM     12  O   UNL     1     -55.236 -40.816 -65.424  0.00  0.00    +0.000 OA
ATOM     13  C   UNL     1     -56.363 -41.510 -63.463  0.00  0.00    +0.000 A 
ATOM     14  H   UNL     1     -55.554 -44.316 -62.071  0.00  0.00    +0.000 HD
ENDROOT
BRANCH   1  15
ATOM     15  S   UNL     1     -57.818 -43.094 -61.660  0.00  0.00    +0.000 S 
ATOM     16  O   UNL     1     -59.098 -42.749 -62.371  0.00  0.00    +0.000 OA
BRANCH  15  17
ATOM     17  C   UNL     1     -57.669 -41.976 -60.236  0.00  0.00    +0.000 C 
BRANCH  17  21
ATOM     18  C   UNL     1     -53.899 -43.257 -57.017  0.00  0.00    +0.000 C 
ATOM     19  C   UNL     1     -55.060 -42.769 -57.784  0.00  0.00    +0.000 A 
ATOM     20  C   UNL     1     -55.483 -42.899 -59.085  0.00  0.00    +0.000 A 
ATOM     21  C   UNL     1     -56.738 -42.252 -59.117  0.00  0.00    +0.000 A 
ATOM     22  N   UNL     1     -57.017 -41.704 -57.921  0.00  0.00    +0.000 NA
ATOM     23  O   UNL     1     -55.965 -42.032 -57.091  0.00  0.00    +0.000 OA
ENDBRANCH  17  21
ENDBRANCH  15  17
ENDBRANCH   1  15
BRANCH  13  24
ATOM     24  C   UNL     1     -57.062 -40.209 -63.261  0.00  0.00    +0.000 C 
ATOM     25  O   UNL     1     -58.207 -40.054 -63.650  0.00  0.00    +0.000 OA
BRANCH  24  26
ATOM     26  C   UNL     1     -56.362 -39.131 -62.539  0.00  0.00    +0.000 C 
ATOM     27  C   UNL     1     -57.019 -37.781 -62.405  0.00  0.00    +0.000 C 
ATOM     28  C   UNL     1     -55.805 -37.932 -63.270  0.00  0.00    +0.000 C 
ENDBRANCH  24  26
ENDBRANCH  13  24
TORSDOF 5
