REMARK VINA RESULT:    -6.121      4.428      5.898
REMARK INTER + INTRA:          -9.089
REMARK INTER:                  -8.160
REMARK INTRA:                  -0.929
REMARK UNBOUND:                -1.180
REMARK  Name = 
REMARK  6 active torsions:
REMARK  status: ('A' for Active; 'I' for Inactive)
REMARK    1  A    between atoms: C_1  and  C_2
REMARK    2  A    between atoms: C_2  and  C_4
REMARK    3  A    between atoms: C_5  and  S_6
REMARK    4  A    between atoms: S_6  and  C_8
REMARK    5  A    between atoms: C_8  and  C_9
REMARK    6  A    between atoms: C_12  and  C_13
REMARK                            x       y       z     vdW  Elec       q    Type
REMARK                         _______ _______ _______ _____ _____    ______ ____
ROOT
ATOM      1  C   UNL     1     -55.902 -44.395 -78.603  0.00  0.00    +0.000 A 
ATOM      2  C   UNL     1     -55.280 -43.199 -78.583  0.00  0.00    +0.000 A 
ATOM      3  N   UNL     1     -54.265 -42.897 -77.696  0.00  0.00    +0.000 N 
ATOM      4  C   UNL     1     -53.836 -43.758 -76.681  0.00  0.00    +0.000 A 
ATOM      5  C   UNL     1     -52.782 -43.406 -75.818  0.00  0.00    +0.000 A 
ATOM      6 BR   UNL     1     -51.928 -41.716 -75.950  0.00  0.00    +0.000 Br
ATOM      7  C   UNL     1     -52.329 -44.291 -74.839  0.00  0.00    +0.000 A 
ATOM      8  C   UNL     1     -52.929 -45.541 -74.709  0.00  0.00    +0.000 A 
ATOM      9  C   UNL     1     -53.973 -45.917 -75.561  0.00  0.00    +0.000 A 
ATOM     10 CL   UNL     1     -54.619 -47.496 -75.277  0.00  0.00    +0.000 Cl
ATOM     11  C   UNL     1     -54.419 -45.032 -76.561  0.00  0.00    +0.000 A 
ATOM     12  C   UNL     1     -55.510 -45.368 -77.522  0.00  0.00    +0.000 A 
ATOM     13  O   UNL     1     -56.124 -46.423 -77.417  0.00  0.00    +0.000 OA
ATOM     14  H   UNL     1     -53.972 -41.915 -77.677  0.00  0.00    +0.000 HD
ENDROOT
BRANCH   1  16
ATOM     15  C   UNL     1     -58.399 -44.502 -79.273  0.00  0.00    +0.000 C 
ATOM     16  C   UNL     1     -56.951 -44.793 -79.600  0.00  0.00    +0.000 C 
ATOM     17  O   UNL     1     -56.661 -45.388 -80.637  0.00  0.00    +0.000 OA
ENDBRANCH   1  16
BRANCH   2  18
ATOM     18  S   UNL     1     -55.796 -41.782 -79.604  0.00  0.00    +0.000 S 
ATOM     19  O   UNL     1     -56.750 -41.037 -78.705  0.00  0.00    +0.000 OA
BRANCH  18  20
ATOM     20  C   UNL     1     -54.239 -40.827 -79.672  0.00  0.00    +0.000 C 
BRANCH  20  21
ATOM     21  C   UNL     1     -53.278 -41.341 -80.731  0.00  0.00    +0.000 A 
ATOM     22  C   UNL     1     -52.176 -42.138 -80.381  0.00  0.00    +0.000 A 
ATOM     23  C   UNL     1     -51.296 -42.619 -81.356  0.00  0.00    +0.000 A 
ATOM     24  C   UNL     1     -51.511 -42.327 -82.705  0.00  0.00    +0.000 A 
ATOM     25  C   UNL     1     -52.614 -41.545 -83.067  0.00  0.00    +0.000 A 
ATOM     26  C   UNL     1     -53.487 -41.055 -82.089  0.00  0.00    +0.000 A 
BRANCH  24  27
ATOM     27  C   UNL     1     -50.609 -42.822 -83.709  0.00  0.00    +0.000 C 
ATOM     28  N   UNL     1     -49.877 -43.216 -84.518  0.00  0.00    +0.000 NA
ENDBRANCH  24  27
ENDBRANCH  20  21
ENDBRANCH  18  20
ENDBRANCH   2  18
TORSDOF 5
