REMARK VINA RESULT:    -5.215      5.367      8.309
REMARK INTER + INTRA:          -7.639
REMARK INTER:                  -7.173
REMARK INTRA:                  -0.466
REMARK UNBOUND:                -0.899
REMARK  Name = 
REMARK  6 active torsions:
REMARK  status: ('A' for Active; 'I' for Inactive)
REMARK    1  A    between atoms: C_1  and  C_2
REMARK    2  A    between atoms: C_4  and  C_5
REMARK    3  A    between atoms: C_5  and  S_6
REMARK    4  A    between atoms: S_6  and  C_8
REMARK    5  A    between atoms: C_20  and  C_21
REMARK    6  A    between atoms: C_21  and  C_23
REMARK                            x       y       z     vdW  Elec       q    Type
REMARK                         _______ _______ _______ _____ _____    ______ ____
ROOT
ATOM      1  C   UNL     1     -54.668 -41.798 -81.709  0.00  0.00    +0.000 A 
ATOM      2  N   UNL     1     -55.983 -41.294 -81.691  0.00  0.00    +0.000 N 
ATOM      3  C   UNL     1     -56.740 -41.203 -82.892  0.00  0.00    +0.000 A 
ATOM      4  C   UNL     1     -58.142 -41.090 -82.909  0.00  0.00    +0.000 A 
ATOM      5 BR   UNL     1     -59.155 -41.231 -81.311  0.00  0.00    +0.000 Br
ATOM      6  C   UNL     1     -58.840 -40.892 -84.109  0.00  0.00    +0.000 A 
ATOM      7  C   UNL     1     -58.135 -40.833 -85.317  0.00  0.00    +0.000 A 
ATOM      8  C   UNL     1     -56.745 -40.945 -85.326  0.00  0.00    +0.000 A 
ATOM      9 CL   UNL     1     -55.978 -40.932 -86.872  0.00  0.00    +0.000 Cl
ATOM     10  C   UNL     1     -56.056 -41.107 -84.114  0.00  0.00    +0.000 A 
ATOM     11  C   UNL     1     -54.584 -41.148 -84.016  0.00  0.00    +0.000 A 
ATOM     12  O   UNL     1     -53.868 -40.542 -84.803  0.00  0.00    +0.000 OA
ATOM     13  C   UNL     1     -53.977 -41.897 -82.866  0.00  0.00    +0.000 A 
ATOM     14  H   UNL     1     -56.523 -41.642 -80.887  0.00  0.00    +0.000 HD
ENDROOT
BRANCH   1  15
ATOM     15  S   UNL     1     -54.235 -42.669 -80.180  0.00  0.00    +0.000 S 
ATOM     16  O   UNL     1     -55.258 -43.769 -80.079  0.00  0.00    +0.000 OA
BRANCH  15  17
ATOM     17  C   UNL     1     -54.485 -41.563 -78.761  0.00  0.00    +0.000 C 
BRANCH  17  21
ATOM     18  C   UNL     1     -50.154 -40.757 -76.151  0.00  0.00    +0.000 C 
ATOM     19  C   UNL     1     -51.453 -40.789 -76.849  0.00  0.00    +0.000 A 
ATOM     20  C   UNL     1     -52.093 -41.698 -77.659  0.00  0.00    +0.000 A 
ATOM     21  C   UNL     1     -53.360 -41.124 -77.903  0.00  0.00    +0.000 A 
ATOM     22  N   UNL     1     -53.446 -39.910 -77.332  0.00  0.00    +0.000 NA
ATOM     23  O   UNL     1     -52.252 -39.707 -76.673  0.00  0.00    +0.000 OA
ENDBRANCH  17  21
ENDBRANCH  15  17
ENDBRANCH   1  15
BRANCH  13  24
ATOM     24  C   UNL     1     -52.818 -42.751 -83.253  0.00  0.00    +0.000 C 
ATOM     25  O   UNL     1     -52.987 -43.767 -83.905  0.00  0.00    +0.000 OA
BRANCH  24  26
ATOM     26  C   UNL     1     -51.459 -42.320 -82.873  0.00  0.00    +0.000 C 
ATOM     27  C   UNL     1     -50.664 -41.457 -83.819  0.00  0.00    +0.000 C 
ATOM     28  C   UNL     1     -50.239 -42.873 -83.572  0.00  0.00    +0.000 C 
ENDBRANCH  24  26
ENDBRANCH  13  24
TORSDOF 5
