REMARK VINA RESULT:    -5.352     12.857     14.561
REMARK INTER + INTRA:          -7.835
REMARK INTER:                  -6.904
REMARK INTRA:                  -0.932
REMARK UNBOUND:                -0.920
REMARK  Name = 
REMARK  8 active torsions:
REMARK  status: ('A' for Active; 'I' for Inactive)
REMARK    1  A    between atoms: C_1  and  C_2
REMARK    2  A    between atoms: C_4  and  C_5
REMARK    3  A    between atoms: C_5  and  S_6
REMARK    4  A    between atoms: S_6  and  C_8
REMARK    5  A    between atoms: C_20  and  C_21
REMARK    6  A    between atoms: C_21  and  C_23
REMARK    7  A    between atoms: C_23  and  C_24
REMARK    8  A    between atoms: C_23  and  C_25
REMARK                            x       y       z     vdW  Elec       q    Type
REMARK                         _______ _______ _______ _____ _____    ______ ____
ROOT
ATOM      1  C   UNL     1     -57.648 -38.813 -61.592  0.00  0.00    +0.000 A 
ATOM      2  N   UNL     1     -56.587 -38.047 -62.064  0.00  0.00    +0.000 N 
ATOM      3  C   UNL     1     -55.635 -38.574 -62.958  0.00  0.00    +0.000 A 
ATOM      4  C   UNL     1     -54.824 -37.751 -63.761  0.00  0.00    +0.000 A 
ATOM      5 BR   UNL     1     -55.082 -35.872 -63.804  0.00  0.00    +0.000 Br
ATOM      6  C   UNL     1     -53.833 -38.297 -64.581  0.00  0.00    +0.000 A 
ATOM      7  C   UNL     1     -53.642 -39.676 -64.615  0.00  0.00    +0.000 A 
ATOM      8  C   UNL     1     -54.447 -40.517 -63.826  0.00  0.00    +0.000 A 
ATOM      9 CL   UNL     1     -54.165 -42.211 -64.006  0.00  0.00    +0.000 Cl
ATOM     10  C   UNL     1     -55.442 -39.965 -62.992  0.00  0.00    +0.000 A 
ATOM     11  C   UNL     1     -56.319 -40.764 -62.098  0.00  0.00    +0.000 A 
ATOM     12  O   UNL     1     -55.959 -41.871 -61.712  0.00  0.00    +0.000 OA
ATOM     13  C   UNL     1     -57.654 -40.166 -61.663  0.00  0.00    +0.000 A 
ATOM     14  H   UNL     1     -56.812 -37.049 -62.181  0.00  0.00    +0.000 HD
ENDROOT
BRANCH   1  15
ATOM     15  S   UNL     1     -59.064 -37.763 -61.090  0.00  0.00    +0.000 S 
ATOM     16  O   UNL     1     -59.835 -37.565 -62.368  0.00  0.00    +0.000 OA
BRANCH  15  17
ATOM     17  C   UNL     1     -58.274 -36.181 -60.640  0.00  0.00    +0.000 C 
BRANCH  17  21
ATOM     18  C   UNL     1     -59.216 -32.230 -63.850  0.00  0.00    +0.000 C 
ATOM     19  C   UNL     1     -59.122 -33.304 -62.837  0.00  0.00    +0.000 A 
ATOM     20  C   UNL     1     -58.300 -34.389 -62.641  0.00  0.00    +0.000 A 
ATOM     21  C   UNL     1     -58.758 -34.989 -61.433  0.00  0.00    +0.000 A 
ATOM     22  N   UNL     1     -59.810 -34.303 -60.955  0.00  0.00    +0.000 NA
ATOM     23  O   UNL     1     -60.030 -33.255 -61.828  0.00  0.00    +0.000 OA
ENDBRANCH  17  21
ENDBRANCH  15  17
ENDBRANCH   1  15
BRANCH  13  24
ATOM     24  C   UNL     1     -58.786 -41.138 -61.415  0.00  0.00    +0.000 C 
ATOM     25  O   UNL     1     -59.210 -41.316 -60.274  0.00  0.00    +0.000 OA
BRANCH  24  26
ATOM     26  C   UNL     1     -59.368 -41.956 -62.568  0.00  0.00    +0.000 C 
ATOM     27  C   UNL     1     -59.059 -41.324 -63.923  0.00  0.00    +0.000 C 
ATOM     28  C   UNL     1     -58.887 -43.409 -62.538  0.00  0.00    +0.000 C 
ENDBRANCH  24  26
ENDBRANCH  13  24
TORSDOF 5
