REMARK VINA RESULT:    -6.728     11.060     13.244
REMARK INTER + INTRA:          -9.596
REMARK INTER:                  -9.159
REMARK INTRA:                  -0.438
REMARK UNBOUND:                -0.901
REMARK  Name = 
REMARK  6 active torsions:
REMARK  status: ('A' for Active; 'I' for Inactive)
REMARK    1  A    between atoms: C_1  and  C_2
REMARK    2  A    between atoms: C_4  and  C_5
REMARK    3  A    between atoms: C_5  and  S_6
REMARK    4  A    between atoms: S_6  and  C_8
REMARK    5  A    between atoms: C_20  and  C_21
REMARK    6  A    between atoms: C_21  and  C_23
REMARK                            x       y       z     vdW  Elec       q    Type
REMARK                         _______ _______ _______ _____ _____    ______ ____
ROOT
ATOM      1  C   UNL     1     -55.364 -42.490 -77.170  0.00  0.00    +0.000 A 
ATOM      2  N   UNL     1     -54.768 -41.217 -77.076  0.00  0.00    +0.000 N 
ATOM      3  C   UNL     1     -53.400 -41.085 -76.710  0.00  0.00    +0.000 A 
ATOM      4  C   UNL     1     -52.646 -39.925 -76.968  0.00  0.00    +0.000 A 
ATOM      5 BR   UNL     1     -53.360 -38.500 -77.997  0.00  0.00    +0.000 Br
ATOM      6  C   UNL     1     -51.333 -39.793 -76.493  0.00  0.00    +0.000 A 
ATOM      7  C   UNL     1     -50.749 -40.842 -75.774  0.00  0.00    +0.000 A 
ATOM      8  C   UNL     1     -51.476 -42.002 -75.508  0.00  0.00    +0.000 A 
ATOM      9 CL   UNL     1     -50.642 -43.265 -74.676  0.00  0.00    +0.000 Cl
ATOM     10  C   UNL     1     -52.801 -42.107 -75.957  0.00  0.00    +0.000 A 
ATOM     11  C   UNL     1     -53.675 -43.256 -75.651  0.00  0.00    +0.000 A 
ATOM     12  O   UNL     1     -53.554 -43.900 -74.617  0.00  0.00    +0.000 OA
ATOM     13  C   UNL     1     -54.782 -43.574 -76.612  0.00  0.00    +0.000 A 
ATOM     14  H   UNL     1     -55.054 -40.595 -77.844  0.00  0.00    +0.000 HD
ENDROOT
BRANCH   1  15
ATOM     15  S   UNL     1     -56.659 -42.560 -78.437  0.00  0.00    +0.000 S 
ATOM     16  O   UNL     1     -56.215 -41.564 -79.473  0.00  0.00    +0.000 OA
BRANCH  15  17
ATOM     17  C   UNL     1     -58.224 -41.957 -77.738  0.00  0.00    +0.000 C 
BRANCH  17  21
ATOM     18  C   UNL     1     -58.936 -41.367 -72.702  0.00  0.00    +0.000 C 
ATOM     19  C   UNL     1     -58.611 -41.361 -74.141  0.00  0.00    +0.000 A 
ATOM     20  C   UNL     1     -58.860 -42.212 -75.192  0.00  0.00    +0.000 A 
ATOM     21  C   UNL     1     -58.340 -41.542 -76.321  0.00  0.00    +0.000 A 
ATOM     22  N   UNL     1     -57.752 -40.389 -75.957  0.00  0.00    +0.000 NA
ATOM     23  O   UNL     1     -57.925 -40.281 -74.593  0.00  0.00    +0.000 OA
ENDBRANCH  17  21
ENDBRANCH  15  17
ENDBRANCH   1  15
BRANCH  13  24
ATOM     24  C   UNL     1     -54.921 -45.029 -76.907  0.00  0.00    +0.000 C 
ATOM     25  O   UNL     1     -54.643 -45.467 -78.009  0.00  0.00    +0.000 OA
BRANCH  24  26
ATOM     26  C   UNL     1     -55.354 -45.935 -75.826  0.00  0.00    +0.000 C 
ATOM     27  C   UNL     1     -54.459 -47.075 -75.412  0.00  0.00    +0.000 C 
ATOM     28  C   UNL     1     -55.751 -47.363 -76.114  0.00  0.00    +0.000 C 
ENDBRANCH  24  26
ENDBRANCH  13  24
TORSDOF 5
