REMARK VINA RESULT:    -5.835      3.640      5.215
REMARK INTER + INTRA:          -8.452
REMARK INTER:                  -7.570
REMARK INTRA:                  -0.881
REMARK UNBOUND:                -0.911
REMARK  Name = 
REMARK  6 active torsions:
REMARK  status: ('A' for Active; 'I' for Inactive)
REMARK    1  A    between atoms: C_1  and  C_2
REMARK    2  A    between atoms: C_4  and  C_5
REMARK    3  A    between atoms: C_5  and  S_6
REMARK    4  A    between atoms: S_6  and  C_8
REMARK    5  A    between atoms: C_20  and  C_21
REMARK    6  A    between atoms: C_21  and  C_23
REMARK                            x       y       z     vdW  Elec       q    Type
REMARK                         _______ _______ _______ _____ _____    ______ ____
ROOT
ATOM      1  C   UNL     1     -55.051 -43.254 -79.116  0.00  0.00    +0.000 A 
ATOM      2  N   UNL     1     -54.037 -43.336 -80.091  0.00  0.00    +0.000 N 
ATOM      3  C   UNL     1     -54.020 -42.439 -81.194  0.00  0.00    +0.000 A 
ATOM      4  C   UNL     1     -52.871 -42.198 -81.971  0.00  0.00    +0.000 A 
ATOM      5 BR   UNL     1     -51.189 -42.929 -81.483  0.00  0.00    +0.000 Br
ATOM      6  C   UNL     1     -52.925 -41.392 -83.116  0.00  0.00    +0.000 A 
ATOM      7  C   UNL     1     -54.135 -40.791 -83.483  0.00  0.00    +0.000 A 
ATOM      8  C   UNL     1     -55.287 -41.014 -82.728  0.00  0.00    +0.000 A 
ATOM      9 CL   UNL     1     -56.710 -40.170 -83.223  0.00  0.00    +0.000 Cl
ATOM     10  C   UNL     1     -55.227 -41.852 -81.604  0.00  0.00    +0.000 A 
ATOM     11  C   UNL     1     -56.408 -42.213 -80.797  0.00  0.00    +0.000 A 
ATOM     12  O   UNL     1     -57.528 -42.286 -81.288  0.00  0.00    +0.000 OA
ATOM     13  C   UNL     1     -56.192 -42.571 -79.356  0.00  0.00    +0.000 A 
ATOM     14  H   UNL     1     -53.110 -43.499 -79.675  0.00  0.00    +0.000 HD
ENDROOT
BRANCH   1  15
ATOM     15  S   UNL     1     -54.473 -43.737 -77.468  0.00  0.00    +0.000 S 
ATOM     16  O   UNL     1     -55.576 -44.606 -76.930  0.00  0.00    +0.000 OA
BRANCH  15  17
ATOM     17  C   UNL     1     -54.372 -42.266 -76.406  0.00  0.00    +0.000 C 
BRANCH  17  21
ATOM     18  C   UNL     1     -49.673 -40.358 -75.700  0.00  0.00    +0.000 C 
ATOM     19  C   UNL     1     -51.067 -40.726 -76.007  0.00  0.00    +0.000 A 
ATOM     20  C   UNL     1     -51.833 -41.853 -75.823  0.00  0.00    +0.000 A 
ATOM     21  C   UNL     1     -53.122 -41.484 -76.269  0.00  0.00    +0.000 A 
ATOM     22  N   UNL     1     -53.110 -40.231 -76.757  0.00  0.00    +0.000 NA
ATOM     23  O   UNL     1     -51.824 -39.762 -76.590  0.00  0.00    +0.000 OA
ENDBRANCH  17  21
ENDBRANCH  15  17
ENDBRANCH   1  15
BRANCH  13  24
ATOM     24  C   UNL     1     -57.189 -41.961 -78.431  0.00  0.00    +0.000 C 
ATOM     25  O   UNL     1     -57.180 -40.761 -78.216  0.00  0.00    +0.000 OA
BRANCH  24  26
ATOM     26  C   UNL     1     -58.214 -42.826 -77.818  0.00  0.00    +0.000 C 
ATOM     27  C   UNL     1     -58.622 -44.099 -78.514  0.00  0.00    +0.000 C 
ATOM     28  C   UNL     1     -59.591 -42.959 -78.425  0.00  0.00    +0.000 C 
ENDBRANCH  24  26
ENDBRANCH  13  24
TORSDOF 5
