REMARK VINA RESULT:    -5.387     18.649     20.144
REMARK INTER + INTRA:          -7.904
REMARK INTER:                  -6.669
REMARK INTRA:                  -1.234
REMARK UNBOUND:                -0.942
REMARK  Name = 
REMARK  8 active torsions:
REMARK  status: ('A' for Active; 'I' for Inactive)
REMARK    1  A    between atoms: C_1  and  C_2
REMARK    2  A    between atoms: C_4  and  C_5
REMARK    3  A    between atoms: C_5  and  S_6
REMARK    4  A    between atoms: S_6  and  C_8
REMARK    5  A    between atoms: C_20  and  C_21
REMARK    6  A    between atoms: C_21  and  C_23
REMARK    7  A    between atoms: C_23  and  C_24
REMARK    8  A    between atoms: C_23  and  C_25
REMARK                            x       y       z     vdW  Elec       q    Type
REMARK                         _______ _______ _______ _____ _____    ______ ____
ROOT
ATOM      1  C   UNL     1     -47.844 -24.774 -62.239  0.00  0.00    +0.000 A 
ATOM      2  N   UNL     1     -47.754 -24.762 -63.628  0.00  0.00    +0.000 N 
ATOM      3  C   UNL     1     -48.561 -23.913 -64.416  0.00  0.00    +0.000 A 
ATOM      4  C   UNL     1     -48.235 -23.597 -65.749  0.00  0.00    +0.000 A 
ATOM      5 CL   UNL     1     -46.734 -24.108 -66.436  0.00  0.00    +0.000 Cl
ATOM      6  C   UNL     1     -49.100 -22.842 -66.541  0.00  0.00    +0.000 A 
ATOM      7  C   UNL     1     -50.308 -22.388 -66.005  0.00  0.00    +0.000 A 
ATOM      8  C   UNL     1     -50.643 -22.680 -64.676  0.00  0.00    +0.000 A 
ATOM      9 CL   UNL     1     -52.127 -22.009 -64.108  0.00  0.00    +0.000 Cl
ATOM     10  C   UNL     1     -49.775 -23.452 -63.889  0.00  0.00    +0.000 A 
ATOM     11  C   UNL     1     -50.062 -23.889 -62.499  0.00  0.00    +0.000 A 
ATOM     12  O   UNL     1     -51.227 -24.030 -62.144  0.00  0.00    +0.000 OA
ATOM     13  C   UNL     1     -48.905 -24.237 -61.572  0.00  0.00    +0.000 A 
ATOM     14  H   UNL     1     -46.800 -24.913 -63.980  0.00  0.00    +0.000 HD
ENDROOT
BRANCH   1  15
ATOM     15  S   UNL     1     -46.276 -25.360 -61.478  0.00  0.00    +0.000 S 
ATOM     16  O   UNL     1     -45.214 -24.591 -62.215  0.00  0.00    +0.000 OA
BRANCH  15  17
ATOM     17  C   UNL     1     -46.180 -27.109 -62.038  0.00  0.00    +0.000 C 
BRANCH  17  21
ATOM     18  C   UNL     1     -42.626 -27.900 -65.708  0.00  0.00    +0.000 C 
ATOM     19  C   UNL     1     -43.780 -27.665 -64.814  0.00  0.00    +0.000 A 
ATOM     20  C   UNL     1     -43.984 -27.703 -63.455  0.00  0.00    +0.000 A 
ATOM     21  C   UNL     1     -45.342 -27.318 -63.274  0.00  0.00    +0.000 A 
ATOM     22  N   UNL     1     -45.918 -27.097 -64.468  0.00  0.00    +0.000 NA
ATOM     23  O   UNL     1     -44.941 -27.308 -65.421  0.00  0.00    +0.000 OA
ENDBRANCH  17  21
ENDBRANCH  15  17
ENDBRANCH   1  15
BRANCH  13  24
ATOM     24  C   UNL     1     -49.140 -23.909 -60.112  0.00  0.00    +0.000 C 
ATOM     25  O   UNL     1     -49.096 -22.731 -59.731  0.00  0.00    +0.000 OA
BRANCH  24  26
ATOM     26  C   UNL     1     -49.282 -24.985 -59.052  0.00  0.00    +0.000 C 
ATOM     27  C   UNL     1     -49.887 -24.390 -57.794  0.00  0.00    +0.000 C 
ATOM     28  C   UNL     1     -50.042 -26.197 -59.580  0.00  0.00    +0.000 C 
ENDBRANCH  24  26
ENDBRANCH  13  24
TORSDOF 5
