REMARK  Name = 
REMARK  5 active torsions:
REMARK  status: ('A' for Active; 'I' for Inactive)
REMARK    1  A    between atoms: C_1  and  C_2
REMARK    2  A    between atoms: C_2  and  C_4
REMARK    3  A    between atoms: C_5  and  S_6
REMARK    4  A    between atoms: S_6  and  C_8
REMARK    5  A    between atoms: C_8  and  C_9
REMARK                            x       y       z     vdW  Elec       q    Type
REMARK                         _______ _______ _______ _____ _____    ______ ____
ROOT
ATOM      1  C   UNL     1       3.231   1.027  -0.738  0.00  0.00    +0.000 A 
ATOM      2  C   UNL     1       2.953   2.348  -0.782  0.00  0.00    +0.000 A 
ATOM      3  N   UNL     1       3.659   3.255  -1.554  0.00  0.00    +0.000 N 
ATOM      4  C   UNL     1       4.886   2.911  -2.147  0.00  0.00    +0.000 A 
ATOM      5  C   UNL     1       5.705   3.892  -2.733  0.00  0.00    +0.000 A 
ATOM      6 BR   UNL     1       5.213   5.726  -2.694  0.00  0.00    +0.000 Br
ATOM      7  C   UNL     1       6.905   3.543  -3.344  0.00  0.00    +0.000 A 
ATOM      8  C   UNL     1       7.297   2.206  -3.381  0.00  0.00    +0.000 A 
ATOM      9  C   UNL     1       6.482   1.211  -2.829  0.00  0.00    +0.000 A 
ATOM     10 CL   UNL     1       7.109  -0.398  -2.880  0.00  0.00    +0.000 Cl
ATOM     11  C   UNL     1       5.258   1.558  -2.236  0.00  0.00    +0.000 A 
ATOM     12  C   UNL     1       4.294   0.564  -1.687  0.00  0.00    +0.000 A 
ATOM     13  O   UNL     1       4.336  -0.613  -2.028  0.00  0.00    +0.000 OA
ATOM     14  H   UNL     1       3.608   4.218  -1.217  0.00  0.00    +0.000 HD
ENDROOT
BRANCH   1  16
ATOM     15  C   UNL     1       3.285  -1.231   0.557  0.00  0.00    +0.000 C 
ATOM     16  C   UNL     1       2.558   0.035   0.166  0.00  0.00    +0.000 C 
ATOM     17  O   UNL     1       1.420   0.236   0.605  0.00  0.00    +0.000 OA
ENDBRANCH   1  16
BRANCH   2  18
ATOM     18  S   UNL     1       1.714   3.078   0.318  0.00  0.00    +0.000 S 
ATOM     19  O   UNL     1       2.493   4.098   1.102  0.00  0.00    +0.000 OA
BRANCH  18  20
ATOM     20  C   UNL     1       0.737   4.033  -0.903  0.00  0.00    +0.000 C 
BRANCH  20  21
ATOM     21  C   UNL     1       0.041   3.285  -2.016  0.00  0.00    +0.000 A 
ATOM     22  C   UNL     1      -0.512   2.011  -1.855  0.00  0.00    +0.000 A 
ATOM     23  C   UNL     1      -1.207   1.399  -2.902  0.00  0.00    +0.000 A 
ATOM     24  C   UNL     1      -1.382   2.061  -4.115  0.00  0.00    +0.000 A 
ATOM     25  C   UNL     1      -0.864   3.342  -4.281  0.00  0.00    +0.000 A 
ATOM     26  C   UNL     1      -0.163   3.951  -3.239  0.00  0.00    +0.000 A 
ENDBRANCH  20  21
ENDBRANCH  18  20
ENDBRANCH   2  18
TORSDOF 4
