=
 OpenBabel09162515383D

 26 28  0  0  0  0  0  0  0  0999 V2000
  -55.3600  -41.4480  -77.7510 C   0  0  0  0  0  0  0  0  0  0  0  0
  -55.0340  -42.6100  -77.1400 C   0  0  0  0  0  0  0  0  0  0  0  0
  -53.8760  -42.7850  -76.4090 N   0  0  0  0  0  0  0  0  0  0  0  0
  -52.8770  -41.8060  -76.3180 C   0  0  0  0  0  0  0  0  0  0  0  0
  -51.7160  -42.0300  -75.5500 C   0  0  0  0  0  0  0  0  0  0  0  0
  -51.4340  -43.6960  -74.6770 Br  0  0  0  0  0  0  0  0  0  0  0  0
  -50.7490  -41.0430  -75.4050 C   0  0  0  0  0  3  0  0  0  0  0  0
  -50.9280  -39.8070  -76.0210 C   0  0  0  0  0  3  0  0  0  0  0  0
  -52.0810  -39.5510  -76.7740 C   0  0  0  0  0  0  0  0  0  0  0  0
  -52.1560  -37.9780  -77.4880 Cl  0  0  0  0  0  0  0  0  0  0  0  0
  -53.0720  -40.5460  -76.9070 C   0  0  0  0  0  0  0  0  0  0  0  0
  -54.3310  -40.3510  -77.6790 C   0  0  0  0  0  0  0  0  0  0  0  0
  -54.5160  -39.3060  -78.2910 O   0  0  0  0  0  0  0  0  0  0  0  0
  -53.5700  -43.7500  -76.2810 H   0  0  0  0  0  0  0  0  0  0  0  0
  -57.8120  -40.5820  -77.7860 C   0  0  0  0  0  1  0  0  0  0  0  0
  -56.6410  -41.2080  -78.5080 C   0  0  0  0  0  0  0  0  0  0  0  0
  -56.7660  -41.5290  -79.6880 O   0  0  0  0  0  0  0  0  0  0  0  0
  -56.0500  -44.1090  -77.3540 S   0  0  1  0  0  0  0  0  0  0  0  0
  -55.0410  -45.1680  -77.7190 O   0  0  0  0  0  0  0  0  0  0  0  0
  -56.4910  -44.4170  -75.6070 C   0  0  0  0  0  2  0  0  0  0  0  0
  -57.1640  -43.2470  -74.9680 C   0  0  0  0  0  0  0  0  0  0  0  0
  -56.6710  -42.3150  -74.0180 C   0  0  0  0  0  3  0  0  0  0  0  0
  -57.7080  -41.4390  -73.8180 C   0  0  0  0  0  0  0  0  0  0  0  0
  -57.9150  -40.2600  -72.9570 C   0  0  0  0  0  1  0  0  0  0  0  0
  -58.7470  -41.7940  -74.6190 O   0  0  0  0  0  0  0  0  0  0  0  0
  -58.4080  -42.9200  -75.3470 N   0  0  0  0  0  0  0  0  0  0  0  0
  1 12  1  0  0  0  0
  1  2  2  0  0  0  0
  2  3  1  0  0  0  0
  3  4  1  0  0  0  0
  3 14  1  0  0  0  0
  4  5  1  0  0  0  0
  5  7  2  0  0  0  0
  5  6  1  0  0  0  0
  8  7  1  0  0  0  0
  9  8  2  0  0  0  0
 10  9  1  0  0  0  0
 11  9  1  0  0  0  0
 11  4  2  0  0  0  0
 12 11  1  0  0  0  0
 13 12  2  0  0  0  0
 16 15  1  0  0  0  0
 16  1  1  0  0  0  0
 17 16  2  0  0  0  0
 18 19  2  1  0  0  0
 18  2  1  0  0  0  0
 18 20  1  0  0  0  0
 20 21  1  0  0  0  0
 21 22  1  0  0  0  0
 22 23  2  0  0  0  0
 23 24  1  0  0  0  0
 25 23  1  0  0  0  0
 26 21  2  0  0  0  0
 26 25  1  0  0  0  0
M  END
>  <MODEL>
1

>  <REMARK>
 VINA RESULT:    -6.387      0.000      0.000
 INTER + INTRA:          -8.923
 INTER:                  -7.881
 INTRA:                  -1.042
 UNBOUND:                -1.042
  Name = 
  6 active torsions:
  status: ('A' for Active; 'I' for Inactive)
    1  A    between atoms: C_1  and  C_2
    2  A    between atoms: C_2  and  C_4
    3  A    between atoms: C_5  and  S_6
    4  A    between atoms: S_6  and  C_8
    5  A    between atoms: C_8  and  C_9
    6  A    between atoms: C_11  and  C_12
                            x       y       z     vdW  Elec       q    Type
                         _______ _______ _______ _____ _____    ______ ____

>  <TORSDO>
F 4

$$$$
