REMARK VINA RESULT:    -7.213     10.360     12.780
REMARK INTER + INTRA:         -10.121
REMARK INTER:                  -9.068
REMARK INTRA:                  -1.053
REMARK UNBOUND:                -0.800
REMARK  Name = 
REMARK  8 active torsions:
REMARK  status: ('A' for Active; 'I' for Inactive)
REMARK    1  A    between atoms: C_1  and  C_2
REMARK    2  A    between atoms: C_4  and  C_5
REMARK    3  A    between atoms: C_5  and  S_6
REMARK    4  A    between atoms: S_6  and  C_8
REMARK    5  A    between atoms: C_20  and  C_21
REMARK    6  A    between atoms: C_21  and  C_23
REMARK    7  A    between atoms: C_23  and  C_24
REMARK    8  A    between atoms: C_23  and  C_25
REMARK                            x       y       z     vdW  Elec       q    Type
REMARK                         _______ _______ _______ _____ _____    ______ ____
ROOT
ATOM      1  C   UNL     1     -55.656 -42.304 -77.372  0.00  0.00    +0.000 A 
ATOM      2  N   UNL     1     -54.957 -41.103 -77.291  0.00  0.00    +0.000 N 
ATOM      3  C   UNL     1     -53.613 -41.058 -76.873  0.00  0.00    +0.000 A 
ATOM      4  C   UNL     1     -52.772 -39.969 -77.169  0.00  0.00    +0.000 A 
ATOM      5 BR   UNL     1     -53.360 -38.562 -78.298  0.00  0.00    +0.000 Br
ATOM      6  C   UNL     1     -51.466 -39.913 -76.676  0.00  0.00    +0.000 A 
ATOM      7  C   UNL     1     -50.979 -40.948 -75.882  0.00  0.00    +0.000 A 
ATOM      8  C   UNL     1     -51.800 -42.050 -75.580  0.00  0.00    +0.000 A 
ATOM      9 CL   UNL     1     -51.063 -43.303 -74.649  0.00  0.00    +0.000 Cl
ATOM     10  C   UNL     1     -53.121 -42.102 -76.072  0.00  0.00    +0.000 A 
ATOM     11  C   UNL     1     -54.076 -43.202 -75.784  0.00  0.00    +0.000 A 
ATOM     12  O   UNL     1     -53.932 -43.895 -74.781  0.00  0.00    +0.000 OA
ATOM     13  C   UNL     1     -55.239 -43.429 -76.746  0.00  0.00    +0.000 A 
ATOM     14  H   UNL     1     -55.233 -40.411 -78.001  0.00  0.00    +0.000 HD
ENDROOT
BRANCH   1  15
ATOM     15  S   UNL     1     -57.033 -42.199 -78.577  0.00  0.00    +0.000 S 
ATOM     16  O   UNL     1     -56.434 -41.460 -79.744  0.00  0.00    +0.000 OA
BRANCH  15  17
ATOM     17  C   UNL     1     -58.231 -41.099 -77.750  0.00  0.00    +0.000 C 
BRANCH  17  21
ATOM     18  C   UNL     1     -57.856 -40.834 -72.593  0.00  0.00    +0.000 C 
ATOM     19  C   UNL     1     -58.081 -41.077 -74.035  0.00  0.00    +0.000 A 
ATOM     20  C   UNL     1     -57.782 -40.400 -75.196  0.00  0.00    +0.000 A 
ATOM     21  C   UNL     1     -58.270 -41.231 -76.245  0.00  0.00    +0.000 A 
ATOM     22  N   UNL     1     -58.845 -42.330 -75.727  0.00  0.00    +0.000 NA
ATOM     23  O   UNL     1     -58.722 -42.231 -74.354  0.00  0.00    +0.000 OA
ENDBRANCH  17  21
ENDBRANCH  15  17
ENDBRANCH   1  15
BRANCH  13  24
ATOM     24  C   UNL     1     -55.729 -44.852 -76.895  0.00  0.00    +0.000 C 
ATOM     25  O   UNL     1     -56.907 -45.128 -76.672  0.00  0.00    +0.000 OA
BRANCH  24  26
ATOM     26  C   UNL     1     -54.753 -45.972 -77.259  0.00  0.00    +0.000 C 
ATOM     27  C   UNL     1     -54.662 -47.025 -76.158  0.00  0.00    +0.000 C 
ATOM     28  C   UNL     1     -55.110 -46.630 -78.595  0.00  0.00    +0.000 C 
ENDBRANCH  24  26
ENDBRANCH  13  24
TORSDOF 5
