MODEL 1
REMARK VINA RESULT:    -7.549      0.000      0.000
REMARK INTER + INTRA:         -10.753
REMARK INTER:                  -9.755
REMARK INTRA:                  -0.997
REMARK UNBOUND:                -0.997
REMARK  Name = 
REMARK  8 active torsions:
REMARK  status: ('A' for Active; 'I' for Inactive)
REMARK    1  A    between atoms: C_1  and  C_2
REMARK    2  A    between atoms: C_4  and  C_5
REMARK    3  A    between atoms: C_5  and  S_6
REMARK    4  A    between atoms: S_6  and  C_8
REMARK    5  A    between atoms: C_20  and  C_21
REMARK    6  A    between atoms: C_21  and  C_23
REMARK    7  A    between atoms: C_23  and  C_24
REMARK    8  A    between atoms: C_23  and  C_25
REMARK                            x       y       z     vdW  Elec       q    Type
REMARK                         _______ _______ _______ _____ _____    ______ ____
ROOT
ATOM      1  C   UNL     1     -55.826 -42.590 -76.665  0.00  0.00    +0.000 A 
ATOM      2  N   UNL     1     -54.502 -42.918 -76.384  0.00  0.00    +0.000 N 
ATOM      3  C   UNL     1     -53.491 -41.935 -76.328  0.00  0.00    +0.000 A 
ATOM      4  C   UNL     1     -52.260 -42.163 -75.682  0.00  0.00    +0.000 A 
ATOM      5 CL   UNL     1     -51.992 -43.613 -74.780  0.00  0.00    +0.000 Cl
ATOM      6  C   UNL     1     -51.237 -41.217 -75.729  0.00  0.00    +0.000 A 
ATOM      7  C   UNL     1     -51.434 -40.022 -76.424  0.00  0.00    +0.000 A 
ATOM      8  C   UNL     1     -52.656 -39.769 -77.060  0.00  0.00    +0.000 A 
ATOM      9 CL   UNL     1     -52.804 -38.231 -77.828  0.00  0.00    +0.000 Cl
ATOM     10  C   UNL     1     -53.677 -40.731 -77.021  0.00  0.00    +0.000 A 
ATOM     11  C   UNL     1     -54.979 -40.607 -77.724  0.00  0.00    +0.000 A 
ATOM     12  O   UNL     1     -55.047 -39.929 -78.742  0.00  0.00    +0.000 OA
ATOM     13  C   UNL     1     -56.180 -41.395 -77.216  0.00  0.00    +0.000 A 
ATOM     14  H   UNL     1     -54.403 -43.690 -75.711  0.00  0.00    +0.000 HD
ENDROOT
BRANCH   1  15
ATOM     15  S   UNL     1     -56.980 -43.845 -75.977  0.00  0.00    +0.000 S 
ATOM     16  O   UNL     1     -57.660 -44.408 -77.195  0.00  0.00    +0.000 OA
BRANCH  15  17
ATOM     17  C   UNL     1     -58.215 -42.815 -75.083  0.00  0.00    +0.000 C 
BRANCH  17  21
ATOM     18  C   UNL     1     -55.938 -41.093 -70.772  0.00  0.00    +0.000 C 
ATOM     19  C   UNL     1     -56.660 -41.391 -72.027  0.00  0.00    +0.000 A 
ATOM     20  C   UNL     1     -56.706 -42.456 -72.897  0.00  0.00    +0.000 A 
ATOM     21  C   UNL     1     -57.661 -42.086 -73.885  0.00  0.00    +0.000 A 
ATOM     22  N   UNL     1     -58.128 -40.852 -73.630  0.00  0.00    +0.000 NA
ATOM     23  O   UNL     1     -57.508 -40.427 -72.471  0.00  0.00    +0.000 OA
ENDBRANCH  17  21
ENDBRANCH  15  17
ENDBRANCH   1  15
BRANCH  13  24
ATOM     24  C   UNL     1     -57.516 -40.704 -77.398  0.00  0.00    +0.000 C 
ATOM     25  O   UNL     1     -57.802 -39.725 -76.697  0.00  0.00    +0.000 OA
BRANCH  24  26
ATOM     26  C   UNL     1     -58.595 -41.255 -78.311  0.00  0.00    +0.000 C 
ATOM     27  C   UNL     1     -59.703 -40.231 -78.471  0.00  0.00    +0.000 C 
ATOM     28  C   UNL     1     -58.018 -41.742 -79.635  0.00  0.00    +0.000 C 
ENDBRANCH  24  26
ENDBRANCH  13  24
TORSDOF 5
ENDMDL
MODEL 2
REMARK VINA RESULT:    -7.523      9.978     12.807
REMARK INTER + INTRA:         -10.720
REMARK INTER:                  -9.552
REMARK INTRA:                  -1.168
REMARK UNBOUND:                -0.997
REMARK  Name = 
REMARK  8 active torsions:
REMARK  status: ('A' for Active; 'I' for Inactive)
REMARK    1  A    between atoms: C_1  and  C_2
REMARK    2  A    between atoms: C_4  and  C_5
REMARK    3  A    between atoms: C_5  and  S_6
REMARK    4  A    between atoms: S_6  and  C_8
REMARK    5  A    between atoms: C_20  and  C_21
REMARK    6  A    between atoms: C_21  and  C_23
REMARK    7  A    between atoms: C_23  and  C_24
REMARK    8  A    between atoms: C_23  and  C_25
REMARK                            x       y       z     vdW  Elec       q    Type
REMARK                         _______ _______ _______ _____ _____    ______ ____
ROOT
ATOM      1  C   UNL     1     -55.518 -42.066 -62.950  0.00  0.00    +0.000 A 
ATOM      2  N   UNL     1     -54.827 -43.275 -62.935  0.00  0.00    +0.000 N 
ATOM      3  C   UNL     1     -53.450 -43.345 -63.238  0.00  0.00    +0.000 A 
ATOM      4  C   UNL     1     -52.657 -44.447 -62.863  0.00  0.00    +0.000 A 
ATOM      5 CL   UNL     1     -53.303 -45.700 -61.863  0.00  0.00    +0.000 Cl
ATOM      6  C   UNL     1     -51.325 -44.544 -63.264  0.00  0.00    +0.000 A 
ATOM      7  C   UNL     1     -50.765 -43.532 -64.047  0.00  0.00    +0.000 A 
ATOM      8  C   UNL     1     -51.533 -42.421 -64.418  0.00  0.00    +0.000 A 
ATOM      9 CL   UNL     1     -50.713 -41.206 -65.328  0.00  0.00    +0.000 Cl
ATOM     10  C   UNL     1     -52.877 -42.336 -64.024  0.00  0.00    +0.000 A 
ATOM     11  C   UNL     1     -53.806 -41.249 -64.424  0.00  0.00    +0.000 A 
ATOM     12  O   UNL     1     -53.615 -40.658 -65.480  0.00  0.00    +0.000 OA
ATOM     13  C   UNL     1     -55.024 -40.951 -63.559  0.00  0.00    +0.000 A 
ATOM     14  H   UNL     1     -55.151 -43.925 -62.206  0.00  0.00    +0.000 HD
ENDROOT
BRANCH   1  15
ATOM     15  S   UNL     1     -56.997 -42.134 -61.860  0.00  0.00    +0.000 S 
ATOM     16  O   UNL     1     -56.536 -42.952 -60.685  0.00  0.00    +0.000 OA
BRANCH  15  17
ATOM     17  C   UNL     1     -58.169 -43.170 -62.827  0.00  0.00    +0.000 C 
BRANCH  17  21
ATOM     18  C   UNL     1     -57.772 -42.692 -67.960  0.00  0.00    +0.000 C 
ATOM     19  C   UNL     1     -58.022 -42.672 -66.503  0.00  0.00    +0.000 A 
ATOM     20  C   UNL     1     -57.694 -43.489 -65.446  0.00  0.00    +0.000 A 
ATOM     21  C   UNL     1     -58.222 -42.836 -64.297  0.00  0.00    +0.000 A 
ATOM     22  N   UNL     1     -58.859 -41.711 -64.662  0.00  0.00    +0.000 NA
ATOM     23  O   UNL     1     -58.726 -41.610 -66.034  0.00  0.00    +0.000 OA
ENDBRANCH  17  21
ENDBRANCH  15  17
ENDBRANCH   1  15
BRANCH  13  24
ATOM     24  C   UNL     1     -55.436 -39.494 -63.523  0.00  0.00    +0.000 C 
ATOM     25  O   UNL     1     -56.544 -39.157 -63.962  0.00  0.00    +0.000 OA
BRANCH  24  26
ATOM     26  C   UNL     1     -54.481 -38.392 -63.105  0.00  0.00    +0.000 C 
ATOM     27  C   UNL     1     -54.335 -37.386 -64.231  0.00  0.00    +0.000 C 
ATOM     28  C   UNL     1     -54.890 -37.766 -61.777  0.00  0.00    +0.000 C 
ENDBRANCH  24  26
ENDBRANCH  13  24
TORSDOF 5
ENDMDL
MODEL 3
REMARK VINA RESULT:    -7.183      2.155      3.949
REMARK INTER + INTRA:         -10.280
REMARK INTER:                  -9.136
REMARK INTRA:                  -1.144
REMARK UNBOUND:                -0.997
REMARK  Name = 
REMARK  8 active torsions:
REMARK  status: ('A' for Active; 'I' for Inactive)
REMARK    1  A    between atoms: C_1  and  C_2
REMARK    2  A    between atoms: C_4  and  C_5
REMARK    3  A    between atoms: C_5  and  S_6
REMARK    4  A    between atoms: S_6  and  C_8
REMARK    5  A    between atoms: C_20  and  C_21
REMARK    6  A    between atoms: C_21  and  C_23
REMARK    7  A    between atoms: C_23  and  C_24
REMARK    8  A    between atoms: C_23  and  C_25
REMARK                            x       y       z     vdW  Elec       q    Type
REMARK                         _______ _______ _______ _____ _____    ______ ____
ROOT
ATOM      1  C   UNL     1     -55.655 -42.152 -77.167  0.00  0.00    +0.000 A 
ATOM      2  N   UNL     1     -54.912 -40.975 -77.117  0.00  0.00    +0.000 N 
ATOM      3  C   UNL     1     -53.543 -40.977 -76.775  0.00  0.00    +0.000 A 
ATOM      4  C   UNL     1     -52.693 -39.898 -77.087  0.00  0.00    +0.000 A 
ATOM      5 CL   UNL     1     -53.255 -38.581 -78.055  0.00  0.00    +0.000 Cl
ATOM      6  C   UNL     1     -51.369 -39.875 -76.647  0.00  0.00    +0.000 A 
ATOM      7  C   UNL     1     -50.875 -40.938 -75.889  0.00  0.00    +0.000 A 
ATOM      8  C   UNL     1     -51.701 -42.027 -75.581  0.00  0.00    +0.000 A 
ATOM      9 CL   UNL     1     -50.960 -43.310 -74.696  0.00  0.00    +0.000 Cl
ATOM     10  C   UNL     1     -53.036 -42.039 -76.014  0.00  0.00    +0.000 A 
ATOM     11  C   UNL     1     -54.022 -43.098 -75.680  0.00  0.00    +0.000 A 
ATOM     12  O   UNL     1     -53.887 -43.735 -74.642  0.00  0.00    +0.000 OA
ATOM     13  C   UNL     1     -55.226 -43.309 -76.588  0.00  0.00    +0.000 A 
ATOM     14  H   UNL     1     -55.187 -40.285 -77.829  0.00  0.00    +0.000 HD
ENDROOT
BRANCH   1  15
ATOM     15  S   UNL     1     -57.098 -41.979 -78.292  0.00  0.00    +0.000 S 
ATOM     16  O   UNL     1     -56.564 -41.153 -79.431  0.00  0.00    +0.000 OA
BRANCH  15  17
ATOM     17  C   UNL     1     -58.243 -40.912 -77.326  0.00  0.00    +0.000 C 
BRANCH  17  21
ATOM     18  C   UNL     1     -57.760 -41.237 -72.188  0.00  0.00    +0.000 C 
ATOM     19  C   UNL     1     -58.028 -41.305 -73.641  0.00  0.00    +0.000 A 
ATOM     20  C   UNL     1     -57.743 -40.507 -74.724  0.00  0.00    +0.000 A 
ATOM     21  C   UNL     1     -58.264 -41.208 -75.847  0.00  0.00    +0.000 A 
ATOM     22  N   UNL     1     -58.856 -42.345 -75.443  0.00  0.00    +0.000 NA
ATOM     23  O   UNL     1     -58.701 -42.403 -74.072  0.00  0.00    +0.000 OA
ENDBRANCH  17  21
ENDBRANCH  15  17
ENDBRANCH   1  15
BRANCH  13  24
ATOM     24  C   UNL     1     -55.700 -44.745 -76.690  0.00  0.00    +0.000 C 
ATOM     25  O   UNL     1     -56.860 -45.034 -76.371  0.00  0.00    +0.000 OA
BRANCH  24  26
ATOM     26  C   UNL     1     -54.759 -45.886 -77.030  0.00  0.00    +0.000 C 
ATOM     27  C   UNL     1     -54.745 -46.893 -75.896  0.00  0.00    +0.000 C 
ATOM     28  C   UNL     1     -55.085 -46.499 -78.387  0.00  0.00    +0.000 C 
ENDBRANCH  24  26
ENDBRANCH  13  24
TORSDOF 5
ENDMDL
MODEL 4
REMARK VINA RESULT:    -7.112      2.718      4.122
REMARK INTER + INTRA:         -10.188
REMARK INTER:                  -9.273
REMARK INTRA:                  -0.915
REMARK UNBOUND:                -0.997
REMARK  Name = 
REMARK  8 active torsions:
REMARK  status: ('A' for Active; 'I' for Inactive)
REMARK    1  A    between atoms: C_1  and  C_2
REMARK    2  A    between atoms: C_4  and  C_5
REMARK    3  A    between atoms: C_5  and  S_6
REMARK    4  A    between atoms: S_6  and  C_8
REMARK    5  A    between atoms: C_20  and  C_21
REMARK    6  A    between atoms: C_21  and  C_23
REMARK    7  A    between atoms: C_23  and  C_24
REMARK    8  A    between atoms: C_23  and  C_25
REMARK                            x       y       z     vdW  Elec       q    Type
REMARK                         _______ _______ _______ _____ _____    ______ ____
ROOT
ATOM      1  C   UNL     1     -55.374 -42.737 -76.487  0.00  0.00    +0.000 A 
ATOM      2  N   UNL     1     -54.034 -43.038 -76.261  0.00  0.00    +0.000 N 
ATOM      3  C   UNL     1     -53.058 -42.026 -76.142  0.00  0.00    +0.000 A 
ATOM      4  C   UNL     1     -51.805 -42.261 -75.541  0.00  0.00    +0.000 A 
ATOM      5 CL   UNL     1     -51.466 -43.770 -74.771  0.00  0.00    +0.000 Cl
ATOM      6  C   UNL     1     -50.817 -41.277 -75.528  0.00  0.00    +0.000 A 
ATOM      7  C   UNL     1     -51.072 -40.036 -76.117  0.00  0.00    +0.000 A 
ATOM      8  C   UNL     1     -52.317 -39.777 -76.705  0.00  0.00    +0.000 A 
ATOM      9 CL   UNL     1     -52.537 -38.187 -77.339  0.00  0.00    +0.000 Cl
ATOM     10  C   UNL     1     -53.302 -40.776 -76.728  0.00  0.00    +0.000 A 
ATOM     11  C   UNL     1     -54.623 -40.642 -77.392  0.00  0.00    +0.000 A 
ATOM     12  O   UNL     1     -54.738 -39.885 -78.348  0.00  0.00    +0.000 OA
ATOM     13  C   UNL     1     -55.784 -41.514 -76.929  0.00  0.00    +0.000 A 
ATOM     14  H   UNL     1     -53.893 -43.858 -75.657  0.00  0.00    +0.000 HD
ENDROOT
BRANCH   1  15
ATOM     15  S   UNL     1     -56.468 -44.087 -75.885  0.00  0.00    +0.000 S 
ATOM     16  O   UNL     1     -56.901 -43.613 -74.524  0.00  0.00    +0.000 OA
BRANCH  15  17
ATOM     17  C   UNL     1     -55.295 -45.481 -75.634  0.00  0.00    +0.000 C 
BRANCH  17  21
ATOM     18  C   UNL     1     -55.782 -50.112 -77.882  0.00  0.00    +0.000 C 
ATOM     19  C   UNL     1     -55.806 -48.731 -77.355  0.00  0.00    +0.000 A 
ATOM     20  C   UNL     1     -55.173 -48.067 -76.330  0.00  0.00    +0.000 A 
ATOM     21  C   UNL     1     -55.633 -46.723 -76.420  0.00  0.00    +0.000 A 
ATOM     22  N   UNL     1     -56.518 -46.609 -77.425  0.00  0.00    +0.000 NA
ATOM     23  O   UNL     1     -56.617 -47.858 -78.007  0.00  0.00    +0.000 OA
ENDBRANCH  17  21
ENDBRANCH  15  17
ENDBRANCH   1  15
BRANCH  13  24
ATOM     24  C   UNL     1     -57.147 -40.861 -77.026  0.00  0.00    +0.000 C 
ATOM     25  O   UNL     1     -57.460 -39.970 -76.226  0.00  0.00    +0.000 OA
BRANCH  24  26
ATOM     26  C   UNL     1     -58.217 -41.358 -77.980  0.00  0.00    +0.000 C 
ATOM     27  C   UNL     1     -59.333 -40.335 -78.075  0.00  0.00    +0.000 C 
ATOM     28  C   UNL     1     -57.630 -41.748 -79.331  0.00  0.00    +0.000 C 
ENDBRANCH  24  26
ENDBRANCH  13  24
TORSDOF 5
ENDMDL
MODEL 5
REMARK VINA RESULT:    -6.779     11.633     14.979
REMARK INTER + INTRA:          -9.758
REMARK INTER:                  -8.931
REMARK INTRA:                  -0.827
REMARK UNBOUND:                -0.997
REMARK  Name = 
REMARK  8 active torsions:
REMARK  status: ('A' for Active; 'I' for Inactive)
REMARK    1  A    between atoms: C_1  and  C_2
REMARK    2  A    between atoms: C_4  and  C_5
REMARK    3  A    between atoms: C_5  and  S_6
REMARK    4  A    between atoms: S_6  and  C_8
REMARK    5  A    between atoms: C_20  and  C_21
REMARK    6  A    between atoms: C_21  and  C_23
REMARK    7  A    between atoms: C_23  and  C_24
REMARK    8  A    between atoms: C_23  and  C_25
REMARK                            x       y       z     vdW  Elec       q    Type
REMARK                         _______ _______ _______ _____ _____    ______ ____
ROOT
ATOM      1  C   UNL     1     -55.350 -43.038 -62.117  0.00  0.00    +0.000 A 
ATOM      2  N   UNL     1     -55.214 -42.820 -60.748  0.00  0.00    +0.000 N 
ATOM      3  C   UNL     1     -56.321 -42.489 -59.937  0.00  0.00    +0.000 A 
ATOM      4  C   UNL     1     -56.294 -42.644 -58.537  0.00  0.00    +0.000 A 
ATOM      5 CL   UNL     1     -54.952 -43.404 -57.758  0.00  0.00    +0.000 Cl
ATOM      6  C   UNL     1     -57.359 -42.213 -57.746  0.00  0.00    +0.000 A 
ATOM      7  C   UNL     1     -58.472 -41.622 -58.349  0.00  0.00    +0.000 A 
ATOM      8  C   UNL     1     -58.523 -41.474 -59.741  0.00  0.00    +0.000 A 
ATOM      9 CL   UNL     1     -59.977 -40.792 -60.374  0.00  0.00    +0.000 Cl
ATOM     10  C   UNL     1     -57.443 -41.896 -60.531  0.00  0.00    +0.000 A 
ATOM     11  C   UNL     1     -57.353 -41.716 -62.002  0.00  0.00    +0.000 A 
ATOM     12  O   UNL     1     -57.950 -40.785 -62.529  0.00  0.00    +0.000 OA
ATOM     13  C   UNL     1     -56.452 -42.639 -62.813  0.00  0.00    +0.000 A 
ATOM     14  H   UNL     1     -54.507 -43.420 -60.305  0.00  0.00    +0.000 HD
ENDROOT
BRANCH   1  15
ATOM     15  S   UNL     1     -54.005 -44.118 -62.754  0.00  0.00    +0.000 S 
ATOM     16  O   UNL     1     -53.665 -44.993 -61.579  0.00  0.00    +0.000 OA
BRANCH  15  17
ATOM     17  C   UNL     1     -52.612 -42.940 -62.985  0.00  0.00    +0.000 C 
BRANCH  17  21
ATOM     18  C   UNL     1     -48.820 -45.623 -65.254  0.00  0.00    +0.000 C 
ATOM     19  C   UNL     1     -49.839 -44.695 -64.720  0.00  0.00    +0.000 A 
ATOM     20  C   UNL     1     -50.962 -44.826 -63.937  0.00  0.00    +0.000 A 
ATOM     21  C   UNL     1     -51.451 -43.500 -63.768  0.00  0.00    +0.000 A 
ATOM     22  N   UNL     1     -50.676 -42.636 -64.445  0.00  0.00    +0.000 NA
ATOM     23  O   UNL     1     -49.671 -43.383 -65.030  0.00  0.00    +0.000 OA
ENDBRANCH  17  21
ENDBRANCH  15  17
ENDBRANCH   1  15
BRANCH  13  24
ATOM     24  C   UNL     1     -56.953 -42.949 -64.209  0.00  0.00    +0.000 C 
ATOM     25  O   UNL     1     -57.868 -43.768 -64.367  0.00  0.00    +0.000 OA
BRANCH  24  26
ATOM     26  C   UNL     1     -56.274 -42.405 -65.452  0.00  0.00    +0.000 C 
ATOM     27  C   UNL     1     -57.277 -42.318 -66.587  0.00  0.00    +0.000 C 
ATOM     28  C   UNL     1     -55.555 -41.091 -65.171  0.00  0.00    +0.000 C 
ENDBRANCH  24  26
ENDBRANCH  13  24
TORSDOF 5
ENDMDL
MODEL 6
REMARK VINA RESULT:    -6.279      3.636      6.533
REMARK INTER + INTRA:          -9.111
REMARK INTER:                  -7.927
REMARK INTRA:                  -1.184
REMARK UNBOUND:                -0.997
REMARK  Name = 
REMARK  8 active torsions:
REMARK  status: ('A' for Active; 'I' for Inactive)
REMARK    1  A    between atoms: C_1  and  C_2
REMARK    2  A    between atoms: C_4  and  C_5
REMARK    3  A    between atoms: C_5  and  S_6
REMARK    4  A    between atoms: S_6  and  C_8
REMARK    5  A    between atoms: C_20  and  C_21
REMARK    6  A    between atoms: C_21  and  C_23
REMARK    7  A    between atoms: C_23  and  C_24
REMARK    8  A    between atoms: C_23  and  C_25
REMARK                            x       y       z     vdW  Elec       q    Type
REMARK                         _______ _______ _______ _____ _____    ______ ____
ROOT
ATOM      1  C   UNL     1     -55.478 -43.306 -78.376  0.00  0.00    +0.000 A 
ATOM      2  N   UNL     1     -54.883 -42.083 -78.079  0.00  0.00    +0.000 N 
ATOM      3  C   UNL     1     -53.712 -41.998 -77.296  0.00  0.00    +0.000 A 
ATOM      4  C   UNL     1     -52.888 -40.856 -77.303  0.00  0.00    +0.000 A 
ATOM      5 CL   UNL     1     -53.188 -39.558 -78.404  0.00  0.00    +0.000 Cl
ATOM      6  C   UNL     1     -51.794 -40.753 -76.443  0.00  0.00    +0.000 A 
ATOM      7  C   UNL     1     -51.508 -41.799 -75.563  0.00  0.00    +0.000 A 
ATOM      8  C   UNL     1     -52.307 -42.949 -75.551  0.00  0.00    +0.000 A 
ATOM      9 CL   UNL     1     -51.814 -44.199 -74.469  0.00  0.00    +0.000 Cl
ATOM     10  C   UNL     1     -53.414 -43.042 -76.408  0.00  0.00    +0.000 A 
ATOM     11  C   UNL     1     -54.375 -44.174 -76.426  0.00  0.00    +0.000 A 
ATOM     12  O   UNL     1     -54.550 -44.826 -75.403  0.00  0.00    +0.000 OA
ATOM     13  C   UNL     1     -55.185 -44.446 -77.687  0.00  0.00    +0.000 A 
ATOM     14  H   UNL     1     -54.953 -41.396 -78.842  0.00  0.00    +0.000 HD
ENDROOT
BRANCH   1  15
ATOM     15  S   UNL     1     -56.468 -43.206 -79.922  0.00  0.00    +0.000 S 
ATOM     16  O   UNL     1     -55.763 -44.150 -80.857  0.00  0.00    +0.000 OA
BRANCH  15  17
ATOM     17  C   UNL     1     -56.133 -41.495 -80.509  0.00  0.00    +0.000 C 
BRANCH  17  21
ATOM     18  C   UNL     1     -52.869 -41.107 -84.500  0.00  0.00    +0.000 C 
ATOM     19  C   UNL     1     -53.633 -41.218 -83.239  0.00  0.00    +0.000 A 
ATOM     20  C   UNL     1     -54.961 -41.129 -82.892  0.00  0.00    +0.000 A 
ATOM     21  C   UNL     1     -54.995 -41.391 -81.493  0.00  0.00    +0.000 A 
ATOM     22  N   UNL     1     -53.748 -41.590 -81.034  0.00  0.00    +0.000 NA
ATOM     23  O   UNL     1     -52.906 -41.488 -82.124  0.00  0.00    +0.000 OA
ENDBRANCH  17  21
ENDBRANCH  15  17
ENDBRANCH   1  15
BRANCH  13  24
ATOM     24  C   UNL     1     -55.491 -45.907 -77.942  0.00  0.00    +0.000 C 
ATOM     25  O   UNL     1     -54.808 -46.546 -78.754  0.00  0.00    +0.000 OA
BRANCH  24  26
ATOM     26  C   UNL     1     -56.706 -46.596 -77.351  0.00  0.00    +0.000 C 
ATOM     27  C   UNL     1     -57.904 -46.390 -78.258  0.00  0.00    +0.000 C 
ATOM     28  C   UNL     1     -56.425 -48.060 -77.034  0.00  0.00    +0.000 C 
ENDBRANCH  24  26
ENDBRANCH  13  24
TORSDOF 5
ENDMDL
MODEL 7
REMARK VINA RESULT:    -6.219      4.059      7.635
REMARK INTER + INTRA:          -9.034
REMARK INTER:                  -8.187
REMARK INTRA:                  -0.847
REMARK UNBOUND:                -0.997
REMARK  Name = 
REMARK  8 active torsions:
REMARK  status: ('A' for Active; 'I' for Inactive)
REMARK    1  A    between atoms: C_1  and  C_2
REMARK    2  A    between atoms: C_4  and  C_5
REMARK    3  A    between atoms: C_5  and  S_6
REMARK    4  A    between atoms: S_6  and  C_8
REMARK    5  A    between atoms: C_20  and  C_21
REMARK    6  A    between atoms: C_21  and  C_23
REMARK    7  A    between atoms: C_23  and  C_24
REMARK    8  A    between atoms: C_23  and  C_25
REMARK                            x       y       z     vdW  Elec       q    Type
REMARK                         _______ _______ _______ _____ _____    ______ ____
ROOT
ATOM      1  C   UNL     1     -54.164 -41.272 -78.455  0.00  0.00    +0.000 A 
ATOM      2  N   UNL     1     -55.522 -41.580 -78.490  0.00  0.00    +0.000 N 
ATOM      3  C   UNL     1     -56.306 -41.608 -77.317  0.00  0.00    +0.000 A 
ATOM      4  C   UNL     1     -57.712 -41.530 -77.355  0.00  0.00    +0.000 A 
ATOM      5 CL   UNL     1     -58.539 -41.231 -78.843  0.00  0.00    +0.000 Cl
ATOM      6  C   UNL     1     -58.471 -41.665 -76.193  0.00  0.00    +0.000 A 
ATOM      7  C   UNL     1     -57.830 -41.877 -74.971  0.00  0.00    +0.000 A 
ATOM      8  C   UNL     1     -56.432 -41.943 -74.910  0.00  0.00    +0.000 A 
ATOM      9 CL   UNL     1     -55.753 -42.141 -73.336  0.00  0.00    +0.000 Cl
ATOM     10  C   UNL     1     -55.674 -41.820 -76.084  0.00  0.00    +0.000 A 
ATOM     11  C   UNL     1     -54.196 -41.953 -76.152  0.00  0.00    +0.000 A 
ATOM     12  O   UNL     1     -53.619 -42.646 -75.321  0.00  0.00    +0.000 OA
ATOM     13  C   UNL     1     -53.439 -41.300 -77.301  0.00  0.00    +0.000 A 
ATOM     14  H   UNL     1     -56.001 -41.233 -79.332  0.00  0.00    +0.000 HD
ENDROOT
BRANCH   1  15
ATOM     15  S   UNL     1     -53.593 -40.606 -80.071  0.00  0.00    +0.000 S 
ATOM     16  O   UNL     1     -54.299 -39.282 -80.180  0.00  0.00    +0.000 OA
BRANCH  15  17
ATOM     17  C   UNL     1     -54.375 -41.748 -81.282  0.00  0.00    +0.000 C 
BRANCH  17  21
ATOM     18  C   UNL     1     -50.563 -43.792 -84.116  0.00  0.00    +0.000 C 
ATOM     19  C   UNL     1     -51.732 -43.400 -83.299  0.00  0.00    +0.000 A 
ATOM     20  C   UNL     1     -52.107 -42.268 -82.613  0.00  0.00    +0.000 A 
ATOM     21  C   UNL     1     -53.393 -42.567 -82.083  0.00  0.00    +0.000 A 
ATOM     22  N   UNL     1     -53.744 -43.822 -82.412  0.00  0.00    +0.000 NA
ATOM     23  O   UNL     1     -52.711 -44.333 -83.173  0.00  0.00    +0.000 OA
ENDBRANCH  17  21
ENDBRANCH  15  17
ENDBRANCH   1  15
BRANCH  13  24
ATOM     24  C   UNL     1     -52.056 -40.796 -76.945  0.00  0.00    +0.000 C 
ATOM     25  O   UNL     1     -51.074 -41.534 -77.099  0.00  0.00    +0.000 OA
BRANCH  24  26
ATOM     26  C   UNL     1     -51.832 -39.462 -76.259  0.00  0.00    +0.000 C 
ATOM     27  C   UNL     1     -50.375 -39.329 -75.859  0.00  0.00    +0.000 C 
ATOM     28  C   UNL     1     -52.340 -38.301 -77.106  0.00  0.00    +0.000 C 
ENDBRANCH  24  26
ENDBRANCH  13  24
TORSDOF 5
ENDMDL
MODEL 8
REMARK VINA RESULT:    -6.081     10.816     13.472
REMARK INTER + INTRA:          -8.855
REMARK INTER:                  -7.946
REMARK INTRA:                  -0.909
REMARK UNBOUND:                -0.997
REMARK  Name = 
REMARK  8 active torsions:
REMARK  status: ('A' for Active; 'I' for Inactive)
REMARK    1  A    between atoms: C_1  and  C_2
REMARK    2  A    between atoms: C_4  and  C_5
REMARK    3  A    between atoms: C_5  and  S_6
REMARK    4  A    between atoms: S_6  and  C_8
REMARK    5  A    between atoms: C_20  and  C_21
REMARK    6  A    between atoms: C_21  and  C_23
REMARK    7  A    between atoms: C_23  and  C_24
REMARK    8  A    between atoms: C_23  and  C_25
REMARK                            x       y       z     vdW  Elec       q    Type
REMARK                         _______ _______ _______ _____ _____    ______ ____
ROOT
ATOM      1  C   UNL     1     -57.539 -40.818 -63.264  0.00  0.00    +0.000 A 
ATOM      2  N   UNL     1     -57.066 -39.598 -62.788  0.00  0.00    +0.000 N 
ATOM      3  C   UNL     1     -55.927 -38.978 -63.344  0.00  0.00    +0.000 A 
ATOM      4  C   UNL     1     -55.659 -37.606 -63.162  0.00  0.00    +0.000 A 
ATOM      5 CL   UNL     1     -56.806 -36.578 -62.380  0.00  0.00    +0.000 Cl
ATOM      6  C   UNL     1     -54.475 -37.037 -63.631  0.00  0.00    +0.000 A 
ATOM      7  C   UNL     1     -53.541 -37.836 -64.295  0.00  0.00    +0.000 A 
ATOM      8  C   UNL     1     -53.796 -39.198 -64.498  0.00  0.00    +0.000 A 
ATOM      9 CL   UNL     1     -52.599 -40.065 -65.389  0.00  0.00    +0.000 Cl
ATOM     10  C   UNL     1     -54.982 -39.768 -64.012  0.00  0.00    +0.000 A 
ATOM     11  C   UNL     1     -55.321 -41.212 -64.098  0.00  0.00    +0.000 A 
ATOM     12  O   UNL     1     -54.416 -42.037 -64.140  0.00  0.00    +0.000 OA
ATOM     13  C   UNL     1     -56.782 -41.640 -64.044  0.00  0.00    +0.000 A 
ATOM     14  H   UNL     1     -57.811 -38.958 -62.483  0.00  0.00    +0.000 HD
ENDROOT
BRANCH   1  15
ATOM     15  S   UNL     1     -59.333 -41.017 -62.912  0.00  0.00    +0.000 S 
ATOM     16  O   UNL     1     -59.648 -39.859 -62.005  0.00  0.00    +0.000 OA
BRANCH  15  17
ATOM     17  C   UNL     1     -59.381 -42.546 -61.891  0.00  0.00    +0.000 C 
BRANCH  17  21
ATOM     18  C   UNL     1     -57.857 -42.012 -56.979  0.00  0.00    +0.000 C 
ATOM     19  C   UNL     1     -58.091 -42.188 -58.428  0.00  0.00    +0.000 A 
ATOM     20  C   UNL     1     -59.199 -42.369 -59.222  0.00  0.00    +0.000 A 
ATOM     21  C   UNL     1     -58.696 -42.418 -60.553  0.00  0.00    +0.000 A 
ATOM     22  N   UNL     1     -57.357 -42.305 -60.541  0.00  0.00    +0.000 NA
ATOM     23  O   UNL     1     -56.987 -42.156 -59.218  0.00  0.00    +0.000 OA
ENDBRANCH  17  21
ENDBRANCH  15  17
ENDBRANCH   1  15
BRANCH  13  24
ATOM     24  C   UNL     1     -57.115 -42.866 -64.870  0.00  0.00    +0.000 C 
ATOM     25  O   UNL     1     -57.335 -43.946 -64.307  0.00  0.00    +0.000 OA
BRANCH  24  26
ATOM     26  C   UNL     1     -57.044 -42.865 -66.385  0.00  0.00    +0.000 C 
ATOM     27  C   UNL     1     -57.831 -44.039 -66.936  0.00  0.00    +0.000 C 
ATOM     28  C   UNL     1     -57.466 -41.521 -66.968  0.00  0.00    +0.000 C 
ENDBRANCH  24  26
ENDBRANCH  13  24
TORSDOF 5
ENDMDL
MODEL 9
REMARK VINA RESULT:    -6.034      3.906      6.616
REMARK INTER + INTRA:          -8.795
REMARK INTER:                  -8.131
REMARK INTRA:                  -0.664
REMARK UNBOUND:                -0.997
REMARK  Name = 
REMARK  8 active torsions:
REMARK  status: ('A' for Active; 'I' for Inactive)
REMARK    1  A    between atoms: C_1  and  C_2
REMARK    2  A    between atoms: C_4  and  C_5
REMARK    3  A    between atoms: C_5  and  S_6
REMARK    4  A    between atoms: S_6  and  C_8
REMARK    5  A    between atoms: C_20  and  C_21
REMARK    6  A    between atoms: C_21  and  C_23
REMARK    7  A    between atoms: C_23  and  C_24
REMARK    8  A    between atoms: C_23  and  C_25
REMARK                            x       y       z     vdW  Elec       q    Type
REMARK                         _______ _______ _______ _____ _____    ______ ____
ROOT
ATOM      1  C   UNL     1     -54.730 -40.923 -78.911  0.00  0.00    +0.000 A 
ATOM      2  N   UNL     1     -54.795 -40.376 -80.190  0.00  0.00    +0.000 N 
ATOM      3  C   UNL     1     -54.067 -40.923 -81.268  0.00  0.00    +0.000 A 
ATOM      4  C   UNL     1     -54.401 -40.652 -82.610  0.00  0.00    +0.000 A 
ATOM      5 CL   UNL     1     -55.827 -39.759 -83.002  0.00  0.00    +0.000 Cl
ATOM      6  C   UNL     1     -53.606 -41.118 -83.657  0.00  0.00    +0.000 A 
ATOM      7  C   UNL     1     -52.462 -41.869 -83.373  0.00  0.00    +0.000 A 
ATOM      8  C   UNL     1     -52.123 -42.162 -82.046  0.00  0.00    +0.000 A 
ATOM      9 CL   UNL     1     -50.727 -43.153 -81.825  0.00  0.00    +0.000 Cl
ATOM     10  C   UNL     1     -52.918 -41.679 -80.996  0.00  0.00    +0.000 A 
ATOM     11  C   UNL     1     -52.612 -41.858 -79.554  0.00  0.00    +0.000 A 
ATOM     12  O   UNL     1     -51.446 -41.990 -79.202  0.00  0.00    +0.000 OA
ATOM     13  C   UNL     1     -53.743 -41.786 -78.536  0.00  0.00    +0.000 A 
ATOM     14  H   UNL     1     -55.722 -40.001 -80.430  0.00  0.00    +0.000 HD
ENDROOT
BRANCH   1  15
ATOM     15  S   UNL     1     -56.241 -40.527 -77.941  0.00  0.00    +0.000 S 
ATOM     16  O   UNL     1     -55.808 -40.720 -76.514  0.00  0.00    +0.000 OA
BRANCH  15  17
ATOM     17  C   UNL     1     -57.373 -41.912 -78.366  0.00  0.00    +0.000 C 
BRANCH  17  21
ATOM     18  C   UNL     1     -59.533 -41.269 -83.020  0.00  0.00    +0.000 C 
ATOM     19  C   UNL     1     -59.103 -41.407 -81.612  0.00  0.00    +0.000 A 
ATOM     20  C   UNL     1     -57.976 -41.877 -80.978  0.00  0.00    +0.000 A 
ATOM     21  C   UNL     1     -58.218 -41.668 -79.591  0.00  0.00    +0.000 A 
ATOM     22  N   UNL     1     -59.438 -41.133 -79.415  0.00  0.00    +0.000 NA
ATOM     23  O   UNL     1     -59.981 -40.967 -80.674  0.00  0.00    +0.000 OA
ENDBRANCH  17  21
ENDBRANCH  15  17
ENDBRANCH   1  15
BRANCH  13  24
ATOM     24  C   UNL     1     -53.570 -42.687 -77.331  0.00  0.00    +0.000 C 
ATOM     25  O   UNL     1     -53.992 -43.850 -77.366  0.00  0.00    +0.000 OA
BRANCH  24  26
ATOM     26  C   UNL     1     -53.028 -42.176 -76.009  0.00  0.00    +0.000 C 
ATOM     27  C   UNL     1     -52.525 -43.340 -75.177  0.00  0.00    +0.000 C 
ATOM     28  C   UNL     1     -51.989 -41.079 -76.214  0.00  0.00    +0.000 C 
ENDBRANCH  24  26
ENDBRANCH  13  24
TORSDOF 5
ENDMDL
MODEL 10
REMARK VINA RESULT:    -5.969      3.912      7.054
REMARK INTER + INTRA:          -8.711
REMARK INTER:                  -7.936
REMARK INTRA:                  -0.775
REMARK UNBOUND:                -0.997
REMARK  Name = 
REMARK  8 active torsions:
REMARK  status: ('A' for Active; 'I' for Inactive)
REMARK    1  A    between atoms: C_1  and  C_2
REMARK    2  A    between atoms: C_4  and  C_5
REMARK    3  A    between atoms: C_5  and  S_6
REMARK    4  A    between atoms: S_6  and  C_8
REMARK    5  A    between atoms: C_20  and  C_21
REMARK    6  A    between atoms: C_21  and  C_23
REMARK    7  A    between atoms: C_23  and  C_24
REMARK    8  A    between atoms: C_23  and  C_25
REMARK                            x       y       z     vdW  Elec       q    Type
REMARK                         _______ _______ _______ _____ _____    ______ ____
ROOT
ATOM      1  C   UNL     1     -55.207 -42.789 -78.942  0.00  0.00    +0.000 A 
ATOM      2  N   UNL     1     -55.248 -44.178 -78.855  0.00  0.00    +0.000 N 
ATOM      3  C   UNL     1     -54.881 -44.858 -77.674  0.00  0.00    +0.000 A 
ATOM      4  C   UNL     1     -55.272 -46.188 -77.425  0.00  0.00    +0.000 A 
ATOM      5 CL   UNL     1     -56.363 -47.002 -78.489  0.00  0.00    +0.000 Cl
ATOM      6  C   UNL     1     -54.811 -46.874 -76.302  0.00  0.00    +0.000 A 
ATOM      7  C   UNL     1     -53.952 -46.233 -75.406  0.00  0.00    +0.000 A 
ATOM      8  C   UNL     1     -53.564 -44.906 -75.629  0.00  0.00    +0.000 A 
ATOM      9 CL   UNL     1     -52.555 -44.201 -74.419  0.00  0.00    +0.000 Cl
ATOM     10  C   UNL     1     -54.020 -44.225 -76.768  0.00  0.00    +0.000 A 
ATOM     11  C   UNL     1     -53.612 -42.848 -77.147  0.00  0.00    +0.000 A 
ATOM     12  O   UNL     1     -52.519 -42.427 -76.786  0.00  0.00    +0.000 OA
ATOM     13  C   UNL     1     -54.520 -42.022 -78.049  0.00  0.00    +0.000 A 
ATOM     14  H   UNL     1     -56.023 -44.600 -79.384  0.00  0.00    +0.000 HD
ENDROOT
BRANCH   1  15
ATOM     15  S   UNL     1     -56.370 -42.169 -80.224  0.00  0.00    +0.000 S 
ATOM     16  O   UNL     1     -57.573 -43.061 -80.074  0.00  0.00    +0.000 OA
BRANCH  15  17
ATOM     17  C   UNL     1     -55.532 -42.632 -81.794  0.00  0.00    +0.000 C 
BRANCH  17  21
ATOM     18  C   UNL     1     -55.757 -39.825 -86.130  0.00  0.00    +0.000 C 
ATOM     19  C   UNL     1     -55.793 -40.469 -84.800  0.00  0.00    +0.000 A 
ATOM     20  C   UNL     1     -55.501 -41.723 -84.315  0.00  0.00    +0.000 A 
ATOM     21  C   UNL     1     -55.717 -41.636 -82.911  0.00  0.00    +0.000 A 
ATOM     22  N   UNL     1     -56.147 -40.404 -82.590  0.00  0.00    +0.000 NA
ATOM     23  O   UNL     1     -56.187 -39.681 -83.766  0.00  0.00    +0.000 OA
ENDBRANCH  17  21
ENDBRANCH  15  17
ENDBRANCH   1  15
BRANCH  13  24
ATOM     24  C   UNL     1     -54.503 -40.532 -77.773  0.00  0.00    +0.000 C 
ATOM     25  O   UNL     1     -55.412 -40.020 -77.106  0.00  0.00    +0.000 OA
BRANCH  24  26
ATOM     26  C   UNL     1     -53.489 -39.602 -78.411  0.00  0.00    +0.000 C 
ATOM     27  C   UNL     1     -54.070 -39.002 -79.678  0.00  0.00    +0.000 C 
ATOM     28  C   UNL     1     -52.979 -38.562 -77.421  0.00  0.00    +0.000 C 
ENDBRANCH  24  26
ENDBRANCH  13  24
TORSDOF 5
ENDMDL
MODEL 11
REMARK VINA RESULT:    -5.953     12.355     14.604
REMARK INTER + INTRA:          -8.690
REMARK INTER:                  -7.594
REMARK INTRA:                  -1.096
REMARK UNBOUND:                -0.997
REMARK  Name = 
REMARK  8 active torsions:
REMARK  status: ('A' for Active; 'I' for Inactive)
REMARK    1  A    between atoms: C_1  and  C_2
REMARK    2  A    between atoms: C_4  and  C_5
REMARK    3  A    between atoms: C_5  and  S_6
REMARK    4  A    between atoms: S_6  and  C_8
REMARK    5  A    between atoms: C_20  and  C_21
REMARK    6  A    between atoms: C_21  and  C_23
REMARK    7  A    between atoms: C_23  and  C_24
REMARK    8  A    between atoms: C_23  and  C_25
REMARK                            x       y       z     vdW  Elec       q    Type
REMARK                         _______ _______ _______ _____ _____    ______ ____
ROOT
ATOM      1  C   UNL     1     -56.709 -37.856 -62.478  0.00  0.00    +0.000 A 
ATOM      2  N   UNL     1     -56.734 -39.188 -62.883  0.00  0.00    +0.000 N 
ATOM      3  C   UNL     1     -55.594 -39.818 -63.428  0.00  0.00    +0.000 A 
ATOM      4  C   UNL     1     -55.468 -41.220 -63.481  0.00  0.00    +0.000 A 
ATOM      5 CL   UNL     1     -56.641 -42.241 -62.728  0.00  0.00    +0.000 Cl
ATOM      6  C   UNL     1     -54.382 -41.821 -64.118  0.00  0.00    +0.000 A 
ATOM      7  C   UNL     1     -53.401 -41.022 -64.710  0.00  0.00    +0.000 A 
ATOM      8  C   UNL     1     -53.501 -39.626 -64.654  0.00  0.00    +0.000 A 
ATOM      9 CL   UNL     1     -52.195 -38.747 -65.362  0.00  0.00    +0.000 Cl
ATOM     10  C   UNL     1     -54.603 -39.027 -64.025  0.00  0.00    +0.000 A 
ATOM     11  C   UNL     1     -54.853 -37.564 -63.976  0.00  0.00    +0.000 A 
ATOM     12  O   UNL     1     -54.411 -36.851 -64.868  0.00  0.00    +0.000 OA
ATOM     13  C   UNL     1     -55.728 -36.993 -62.866  0.00  0.00    +0.000 A 
ATOM     14  H   UNL     1     -57.328 -39.786 -62.294  0.00  0.00    +0.000 HD
ENDROOT
BRANCH   1  15
ATOM     15  S   UNL     1     -57.990 -37.528 -61.200  0.00  0.00    +0.000 S 
ATOM     16  O   UNL     1     -58.611 -38.878 -60.964  0.00  0.00    +0.000 OA
BRANCH  15  17
ATOM     17  C   UNL     1     -59.219 -36.506 -62.108  0.00  0.00    +0.000 C 
BRANCH  17  21
ATOM     18  C   UNL     1     -58.539 -31.416 -62.712  0.00  0.00    +0.000 C 
ATOM     19  C   UNL     1     -58.691 -32.838 -62.338  0.00  0.00    +0.000 A 
ATOM     20  C   UNL     1     -59.157 -33.968 -62.969  0.00  0.00    +0.000 A 
ATOM     21  C   UNL     1     -58.968 -35.021 -62.030  0.00  0.00    +0.000 A 
ATOM     22  N   UNL     1     -58.447 -34.531 -60.892  0.00  0.00    +0.000 NA
ATOM     23  O   UNL     1     -58.271 -33.175 -61.091  0.00  0.00    +0.000 OA
ENDBRANCH  17  21
ENDBRANCH  15  17
ENDBRANCH   1  15
BRANCH  13  24
ATOM     24  C   UNL     1     -55.336 -35.607 -62.399  0.00  0.00    +0.000 C 
ATOM     25  O   UNL     1     -55.701 -34.614 -63.042  0.00  0.00    +0.000 OA
BRANCH  24  26
ATOM     26  C   UNL     1     -54.377 -35.383 -61.244  0.00  0.00    +0.000 C 
ATOM     27  C   UNL     1     -54.461 -36.547 -60.275  0.00  0.00    +0.000 C 
ATOM     28  C   UNL     1     -52.962 -35.099 -61.735  0.00  0.00    +0.000 C 
ENDBRANCH  24  26
ENDBRANCH  13  24
TORSDOF 5
ENDMDL
MODEL 12
REMARK VINA RESULT:    -5.849      3.712      5.905
REMARK INTER + INTRA:          -8.556
REMARK INTER:                  -7.918
REMARK INTRA:                  -0.639
REMARK UNBOUND:                -0.997
REMARK  Name = 
REMARK  8 active torsions:
REMARK  status: ('A' for Active; 'I' for Inactive)
REMARK    1  A    between atoms: C_1  and  C_2
REMARK    2  A    between atoms: C_4  and  C_5
REMARK    3  A    between atoms: C_5  and  S_6
REMARK    4  A    between atoms: S_6  and  C_8
REMARK    5  A    between atoms: C_20  and  C_21
REMARK    6  A    between atoms: C_21  and  C_23
REMARK    7  A    between atoms: C_23  and  C_24
REMARK    8  A    between atoms: C_23  and  C_25
REMARK                            x       y       z     vdW  Elec       q    Type
REMARK                         _______ _______ _______ _____ _____    ______ ____
ROOT
ATOM      1  C   UNL     1     -57.145 -43.280 -77.384  0.00  0.00    +0.000 A 
ATOM      2  N   UNL     1     -58.237 -43.996 -77.868  0.00  0.00    +0.000 N 
ATOM      3  C   UNL     1     -58.306 -45.402 -77.764  0.00  0.00    +0.000 A 
ATOM      4  C   UNL     1     -59.523 -46.101 -77.880  0.00  0.00    +0.000 A 
ATOM      5 CL   UNL     1     -61.023 -45.251 -77.993  0.00  0.00    +0.000 Cl
ATOM      6  C   UNL     1     -59.554 -47.496 -77.879  0.00  0.00    +0.000 A 
ATOM      7  C   UNL     1     -58.362 -48.212 -77.758  0.00  0.00    +0.000 A 
ATOM      8  C   UNL     1     -57.143 -47.535 -77.627  0.00  0.00    +0.000 A 
ATOM      9 CL   UNL     1     -55.746 -48.527 -77.418  0.00  0.00    +0.000 Cl
ATOM     10  C   UNL     1     -57.116 -46.132 -77.643  0.00  0.00    +0.000 A 
ATOM     11  C   UNL     1     -55.879 -45.311 -77.592  0.00  0.00    +0.000 A 
ATOM     12  O   UNL     1     -54.832 -45.780 -78.024  0.00  0.00    +0.000 OA
ATOM     13  C   UNL     1     -55.956 -43.876 -77.087  0.00  0.00    +0.000 A 
ATOM     14  H   UNL     1     -59.133 -43.502 -77.761  0.00  0.00    +0.000 HD
ENDROOT
BRANCH   1  15
ATOM     15  S   UNL     1     -57.612 -41.548 -76.983  0.00  0.00    +0.000 S 
ATOM     16  O   UNL     1     -56.326 -40.935 -76.502  0.00  0.00    +0.000 OA
BRANCH  15  17
ATOM     17  C   UNL     1     -58.709 -41.749 -75.521  0.00  0.00    +0.000 C 
BRANCH  17  21
ATOM     18  C   UNL     1     -56.243 -40.692 -71.101  0.00  0.00    +0.000 C 
ATOM     19  C   UNL     1     -56.936 -41.193 -72.307  0.00  0.00    +0.000 A 
ATOM     20  C   UNL     1     -57.626 -40.615 -73.346  0.00  0.00    +0.000 A 
ATOM     21  C   UNL     1     -57.989 -41.697 -74.196  0.00  0.00    +0.000 A 
ATOM     22  N   UNL     1     -57.564 -42.857 -73.667  0.00  0.00    +0.000 NA
ATOM     23  O   UNL     1     -56.904 -42.538 -72.496  0.00  0.00    +0.000 OA
ENDBRANCH  17  21
ENDBRANCH  15  17
ENDBRANCH   1  15
BRANCH  13  24
ATOM     24  C   UNL     1     -54.724 -43.398 -76.346  0.00  0.00    +0.000 C 
ATOM     25  O   UNL     1     -54.740 -43.323 -75.110  0.00  0.00    +0.000 OA
BRANCH  24  26
ATOM     26  C   UNL     1     -53.504 -42.857 -77.067  0.00  0.00    +0.000 C 
ATOM     27  C   UNL     1     -53.896 -42.390 -78.457  0.00  0.00    +0.000 C 
ATOM     28  C   UNL     1     -52.790 -41.791 -76.244  0.00  0.00    +0.000 C 
ENDBRANCH  24  26
ENDBRANCH  13  24
TORSDOF 5
ENDMDL
MODEL 13
REMARK VINA RESULT:    -5.791     12.393     15.207
REMARK INTER + INTRA:          -8.481
REMARK INTER:                  -7.708
REMARK INTRA:                  -0.773
REMARK UNBOUND:                -0.997
REMARK  Name = 
REMARK  8 active torsions:
REMARK  status: ('A' for Active; 'I' for Inactive)
REMARK    1  A    between atoms: C_1  and  C_2
REMARK    2  A    between atoms: C_4  and  C_5
REMARK    3  A    between atoms: C_5  and  S_6
REMARK    4  A    between atoms: S_6  and  C_8
REMARK    5  A    between atoms: C_20  and  C_21
REMARK    6  A    between atoms: C_21  and  C_23
REMARK    7  A    between atoms: C_23  and  C_24
REMARK    8  A    between atoms: C_23  and  C_25
REMARK                            x       y       z     vdW  Elec       q    Type
REMARK                         _______ _______ _______ _____ _____    ______ ____
ROOT
ATOM      1  C   UNL     1     -56.642 -40.883 -61.418  0.00  0.00    +0.000 A 
ATOM      2  N   UNL     1     -56.698 -41.569 -60.207  0.00  0.00    +0.000 N 
ATOM      3  C   UNL     1     -55.767 -42.579 -59.884  0.00  0.00    +0.000 A 
ATOM      4  C   UNL     1     -55.557 -43.006 -58.558  0.00  0.00    +0.000 A 
ATOM      5 CL   UNL     1     -56.319 -42.193 -57.238  0.00  0.00    +0.000 Cl
ATOM      6  C   UNL     1     -54.709 -44.077 -58.273  0.00  0.00    +0.000 A 
ATOM      7  C   UNL     1     -54.055 -44.735 -59.317  0.00  0.00    +0.000 A 
ATOM      8  C   UNL     1     -54.239 -44.316 -60.641  0.00  0.00    +0.000 A 
ATOM      9 CL   UNL     1     -53.327 -45.163 -61.835  0.00  0.00    +0.000 Cl
ATOM     10  C   UNL     1     -55.104 -43.247 -60.923  0.00  0.00    +0.000 A 
ATOM     11  C   UNL     1     -55.437 -42.770 -62.289  0.00  0.00    +0.000 A 
ATOM     12  O   UNL     1     -55.383 -43.556 -63.227  0.00  0.00    +0.000 OA
ATOM     13  C   UNL     1     -55.923 -41.339 -62.482  0.00  0.00    +0.000 A 
ATOM     14  H   UNL     1     -57.007 -40.986 -59.418  0.00  0.00    +0.000 HD
ENDROOT
BRANCH   1  15
ATOM     15  S   UNL     1     -57.431 -39.228 -61.280  0.00  0.00    +0.000 S 
ATOM     16  O   UNL     1     -58.267 -39.127 -62.527  0.00  0.00    +0.000 OA
BRANCH  15  17
ATOM     17  C   UNL     1     -56.008 -38.080 -61.476  0.00  0.00    +0.000 C 
BRANCH  17  21
ATOM     18  C   UNL     1     -58.146 -33.598 -62.917  0.00  0.00    +0.000 C 
ATOM     19  C   UNL     1     -57.352 -34.789 -62.548  0.00  0.00    +0.000 A 
ATOM     20  C   UNL     1     -57.623 -35.990 -61.934  0.00  0.00    +0.000 A 
ATOM     21  C   UNL     1     -56.388 -36.697 -61.943  0.00  0.00    +0.000 A 
ATOM     22  N   UNL     1     -55.431 -35.938 -62.503  0.00  0.00    +0.000 NA
ATOM     23  O   UNL     1     -56.037 -34.756 -62.883  0.00  0.00    +0.000 OA
ENDBRANCH  17  21
ENDBRANCH  15  17
ENDBRANCH   1  15
BRANCH  13  24
ATOM     24  C   UNL     1     -55.505 -40.698 -63.790  0.00  0.00    +0.000 C 
ATOM     25  O   UNL     1     -56.296 -40.670 -64.742  0.00  0.00    +0.000 OA
BRANCH  24  26
ATOM     26  C   UNL     1     -54.089 -40.214 -64.038  0.00  0.00    +0.000 C 
ATOM     27  C   UNL     1     -53.422 -41.092 -65.080  0.00  0.00    +0.000 C 
ATOM     28  C   UNL     1     -54.053 -38.729 -64.379  0.00  0.00    +0.000 C 
ENDBRANCH  24  26
ENDBRANCH  13  24
TORSDOF 5
ENDMDL
MODEL 14
REMARK VINA RESULT:    -5.756      3.580      5.883
REMARK INTER + INTRA:          -8.436
REMARK INTER:                  -7.351
REMARK INTRA:                  -1.086
REMARK UNBOUND:                -0.997
REMARK  Name = 
REMARK  8 active torsions:
REMARK  status: ('A' for Active; 'I' for Inactive)
REMARK    1  A    between atoms: C_1  and  C_2
REMARK    2  A    between atoms: C_4  and  C_5
REMARK    3  A    between atoms: C_5  and  S_6
REMARK    4  A    between atoms: S_6  and  C_8
REMARK    5  A    between atoms: C_20  and  C_21
REMARK    6  A    between atoms: C_21  and  C_23
REMARK    7  A    between atoms: C_23  and  C_24
REMARK    8  A    between atoms: C_23  and  C_25
REMARK                            x       y       z     vdW  Elec       q    Type
REMARK                         _______ _______ _______ _____ _____    ______ ____
ROOT
ATOM      1  C   UNL     1     -56.757 -43.417 -77.941  0.00  0.00    +0.000 A 
ATOM      2  N   UNL     1     -55.890 -43.718 -76.894  0.00  0.00    +0.000 N 
ATOM      3  C   UNL     1     -55.501 -45.044 -76.612  0.00  0.00    +0.000 A 
ATOM      4  C   UNL     1     -54.360 -45.341 -75.841  0.00  0.00    +0.000 A 
ATOM      5 CL   UNL     1     -53.284 -44.086 -75.337  0.00  0.00    +0.000 Cl
ATOM      6  C   UNL     1     -54.053 -46.655 -75.487  0.00  0.00    +0.000 A 
ATOM      7  C   UNL     1     -54.887 -47.695 -75.905  0.00  0.00    +0.000 A 
ATOM      8  C   UNL     1     -56.018 -47.421 -76.685  0.00  0.00    +0.000 A 
ATOM      9 CL   UNL     1     -56.931 -48.793 -77.196  0.00  0.00    +0.000 Cl
ATOM     10  C   UNL     1     -56.329 -46.096 -77.026  0.00  0.00    +0.000 A 
ATOM     11  C   UNL     1     -57.541 -45.682 -77.778  0.00  0.00    +0.000 A 
ATOM     12  O   UNL     1     -58.552 -46.372 -77.711  0.00  0.00    +0.000 OA
ATOM     13  C   UNL     1     -57.531 -44.364 -78.542  0.00  0.00    +0.000 A 
ATOM     14  H   UNL     1     -55.165 -43.004 -76.743  0.00  0.00    +0.000 HD
ENDROOT
BRANCH   1  15
ATOM     15  S   UNL     1     -56.517 -41.691 -78.527  0.00  0.00    +0.000 S 
ATOM     16  O   UNL     1     -57.498 -41.560 -79.660  0.00  0.00    +0.000 OA
BRANCH  15  17
ATOM     17  C   UNL     1     -54.831 -41.741 -79.260  0.00  0.00    +0.000 C 
BRANCH  17  21
ATOM     18  C   UNL     1     -50.496 -41.063 -76.524  0.00  0.00    +0.000 C 
ATOM     19  C   UNL     1     -51.833 -41.164 -77.148  0.00  0.00    +0.000 A 
ATOM     20  C   UNL     1     -52.305 -41.516 -78.391  0.00  0.00    +0.000 A 
ATOM     21  C   UNL     1     -53.722 -41.437 -78.284  0.00  0.00    +0.000 A 
ATOM     22  N   UNL     1     -54.066 -41.026 -77.052  0.00  0.00    +0.000 NA
ATOM     23  O   UNL     1     -52.888 -40.864 -76.348  0.00  0.00    +0.000 OA
ENDBRANCH  17  21
ENDBRANCH  15  17
ENDBRANCH   1  15
BRANCH  13  24
ATOM     24  C   UNL     1     -58.354 -44.363 -79.815  0.00  0.00    +0.000 C 
ATOM     25  O   UNL     1     -59.542 -44.018 -79.779  0.00  0.00    +0.000 OA
BRANCH  24  26
ATOM     26  C   UNL     1     -57.821 -44.915 -81.123  0.00  0.00    +0.000 C 
ATOM     27  C   UNL     1     -56.309 -44.786 -81.157  0.00  0.00    +0.000 C 
ATOM     28  C   UNL     1     -58.318 -46.333 -81.380  0.00  0.00    +0.000 C 
ENDBRANCH  24  26
ENDBRANCH  13  24
TORSDOF 5
ENDMDL
MODEL 15
REMARK VINA RESULT:    -5.750      5.475      8.183
REMARK INTER + INTRA:          -8.428
REMARK INTER:                  -7.336
REMARK INTRA:                  -1.092
REMARK UNBOUND:                -0.997
REMARK  Name = 
REMARK  8 active torsions:
REMARK  status: ('A' for Active; 'I' for Inactive)
REMARK    1  A    between atoms: C_1  and  C_2
REMARK    2  A    between atoms: C_4  and  C_5
REMARK    3  A    between atoms: C_5  and  S_6
REMARK    4  A    between atoms: S_6  and  C_8
REMARK    5  A    between atoms: C_20  and  C_21
REMARK    6  A    between atoms: C_21  and  C_23
REMARK    7  A    between atoms: C_23  and  C_24
REMARK    8  A    between atoms: C_23  and  C_25
REMARK                            x       y       z     vdW  Elec       q    Type
REMARK                         _______ _______ _______ _____ _____    ______ ____
ROOT
ATOM      1  C   UNL     1     -58.174 -45.323 -77.762  0.00  0.00    +0.000 A 
ATOM      2  N   UNL     1     -59.513 -45.119 -78.087  0.00  0.00    +0.000 N 
ATOM      3  C   UNL     1     -60.356 -46.188 -78.459  0.00  0.00    +0.000 A 
ATOM      4  C   UNL     1     -61.760 -46.083 -78.413  0.00  0.00    +0.000 A 
ATOM      5 CL   UNL     1     -62.520 -44.684 -77.740  0.00  0.00    +0.000 Cl
ATOM      6  C   UNL     1     -62.574 -47.114 -78.883  0.00  0.00    +0.000 A 
ATOM      7  C   UNL     1     -61.990 -48.270 -79.405  0.00  0.00    +0.000 A 
ATOM      8  C   UNL     1     -60.596 -48.400 -79.445  0.00  0.00    +0.000 A 
ATOM      9 CL   UNL     1     -59.994 -49.900 -80.048  0.00  0.00    +0.000 Cl
ATOM     10  C   UNL     1     -59.782 -47.354 -78.983  0.00  0.00    +0.000 A 
ATOM     11  C   UNL     1     -58.298 -47.347 -79.051  0.00  0.00    +0.000 A 
ATOM     12  O   UNL     1     -57.737 -47.992 -79.928  0.00  0.00    +0.000 OA
ATOM     13  C   UNL     1     -57.511 -46.470 -78.085  0.00  0.00    +0.000 A 
ATOM     14  H   UNL     1     -59.961 -44.375 -77.536  0.00  0.00    +0.000 HD
ENDROOT
BRANCH   1  15
ATOM     15  S   UNL     1     -57.548 -43.990 -76.662  0.00  0.00    +0.000 S 
ATOM     16  O   UNL     1     -58.612 -42.930 -76.746  0.00  0.00    +0.000 OA
BRANCH  15  17
ATOM     17  C   UNL     1     -56.077 -43.367 -77.573  0.00  0.00    +0.000 C 
BRANCH  17  21
ATOM     18  C   UNL     1     -52.093 -44.214 -74.387  0.00  0.00    +0.000 C 
ATOM     19  C   UNL     1     -53.104 -43.846 -75.402  0.00  0.00    +0.000 A 
ATOM     20  C   UNL     1     -54.360 -44.295 -75.735  0.00  0.00    +0.000 A 
ATOM     21  C   UNL     1     -54.787 -43.447 -76.795  0.00  0.00    +0.000 A 
ATOM     22  N   UNL     1     -53.818 -42.565 -77.094  0.00  0.00    +0.000 NA
ATOM     23  O   UNL     1     -52.776 -42.814 -76.221  0.00  0.00    +0.000 OA
ENDBRANCH  17  21
ENDBRANCH  15  17
ENDBRANCH   1  15
BRANCH  13  24
ATOM     24  C   UNL     1     -56.173 -47.037 -77.660  0.00  0.00    +0.000 C 
ATOM     25  O   UNL     1     -55.143 -46.698 -78.257  0.00  0.00    +0.000 OA
BRANCH  24  26
ATOM     26  C   UNL     1     -56.052 -48.132 -76.616  0.00  0.00    +0.000 C 
ATOM     27  C   UNL     1     -55.751 -49.455 -77.294  0.00  0.00    +0.000 C 
ATOM     28  C   UNL     1     -55.052 -47.763 -75.527  0.00  0.00    +0.000 C 
ENDBRANCH  24  26
ENDBRANCH  13  24
TORSDOF 5
ENDMDL
MODEL 16
REMARK VINA RESULT:    -5.546      3.497      6.657
REMARK INTER + INTRA:          -8.164
REMARK INTER:                  -7.201
REMARK INTRA:                  -0.964
REMARK UNBOUND:                -0.997
REMARK  Name = 
REMARK  8 active torsions:
REMARK  status: ('A' for Active; 'I' for Inactive)
REMARK    1  A    between atoms: C_1  and  C_2
REMARK    2  A    between atoms: C_4  and  C_5
REMARK    3  A    between atoms: C_5  and  S_6
REMARK    4  A    between atoms: S_6  and  C_8
REMARK    5  A    between atoms: C_20  and  C_21
REMARK    6  A    between atoms: C_21  and  C_23
REMARK    7  A    between atoms: C_23  and  C_24
REMARK    8  A    between atoms: C_23  and  C_25
REMARK                            x       y       z     vdW  Elec       q    Type
REMARK                         _______ _______ _______ _____ _____    ______ ____
ROOT
ATOM      1  C   UNL     1     -55.771 -42.549 -77.630  0.00  0.00    +0.000 A 
ATOM      2  N   UNL     1     -57.048 -42.998 -77.302  0.00  0.00    +0.000 N 
ATOM      3  C   UNL     1     -57.661 -42.658 -76.077  0.00  0.00    +0.000 A 
ATOM      4  C   UNL     1     -59.052 -42.760 -75.884  0.00  0.00    +0.000 A 
ATOM      5 CL   UNL     1     -60.100 -43.156 -77.199  0.00  0.00    +0.000 Cl
ATOM      6  C   UNL     1     -59.624 -42.518 -74.635  0.00  0.00    +0.000 A 
ATOM      7  C   UNL     1     -58.807 -42.165 -73.558  0.00  0.00    +0.000 A 
ATOM      8  C   UNL     1     -57.423 -42.044 -73.735  0.00  0.00    +0.000 A 
ATOM      9 CL   UNL     1     -56.527 -41.537 -72.349  0.00  0.00    +0.000 Cl
ATOM     10  C   UNL     1     -56.851 -42.302 -74.990  0.00  0.00    +0.000 A 
ATOM     11  C   UNL     1     -55.393 -42.283 -75.273  0.00  0.00    +0.000 A 
ATOM     12  O   UNL     1     -54.605 -42.529 -74.367  0.00  0.00    +0.000 OA
ATOM     13  C   UNL     1     -54.913 -42.046 -76.699  0.00  0.00    +0.000 A 
ATOM     14  H   UNL     1     -57.682 -43.062 -78.109  0.00  0.00    +0.000 HD
ENDROOT
BRANCH   1  15
ATOM     15  S   UNL     1     -55.532 -42.503 -79.453  0.00  0.00    +0.000 S 
ATOM     16  O   UNL     1     -56.007 -41.128 -79.838  0.00  0.00    +0.000 OA
BRANCH  15  17
ATOM     17  C   UNL     1     -56.783 -43.707 -80.058  0.00  0.00    +0.000 C 
BRANCH  17  21
ATOM     18  C   UNL     1     -56.252 -48.778 -79.195  0.00  0.00    +0.000 C 
ATOM     19  C   UNL     1     -56.206 -47.333 -79.505  0.00  0.00    +0.000 A 
ATOM     20  C   UNL     1     -57.136 -46.323 -79.587  0.00  0.00    +0.000 A 
ATOM     21  C   UNL     1     -56.384 -45.152 -79.887  0.00  0.00    +0.000 A 
ATOM     22  N   UNL     1     -55.083 -45.463 -80.010  0.00  0.00    +0.000 NA
ATOM     23  O   UNL     1     -54.976 -46.818 -79.765  0.00  0.00    +0.000 OA
ENDBRANCH  17  21
ENDBRANCH  15  17
ENDBRANCH   1  15
BRANCH  13  24
ATOM     24  C   UNL     1     -53.604 -41.290 -76.810  0.00  0.00    +0.000 C 
ATOM     25  O   UNL     1     -53.609 -40.052 -76.838  0.00  0.00    +0.000 OA
BRANCH  24  26
ATOM     26  C   UNL     1     -52.280 -41.994 -77.042  0.00  0.00    +0.000 C 
ATOM     27  C   UNL     1     -51.813 -41.749 -78.465  0.00  0.00    +0.000 C 
ATOM     28  C   UNL     1     -51.249 -41.613 -75.987  0.00  0.00    +0.000 C 
ENDBRANCH  24  26
ENDBRANCH  13  24
TORSDOF 5
ENDMDL
MODEL 17
REMARK VINA RESULT:    -5.525     13.158     15.407
REMARK INTER + INTRA:          -8.138
REMARK INTER:                  -7.362
REMARK INTRA:                  -0.776
REMARK UNBOUND:                -0.997
REMARK  Name = 
REMARK  8 active torsions:
REMARK  status: ('A' for Active; 'I' for Inactive)
REMARK    1  A    between atoms: C_1  and  C_2
REMARK    2  A    between atoms: C_4  and  C_5
REMARK    3  A    between atoms: C_5  and  S_6
REMARK    4  A    between atoms: S_6  and  C_8
REMARK    5  A    between atoms: C_20  and  C_21
REMARK    6  A    between atoms: C_21  and  C_23
REMARK    7  A    between atoms: C_23  and  C_24
REMARK    8  A    between atoms: C_23  and  C_25
REMARK                            x       y       z     vdW  Elec       q    Type
REMARK                         _______ _______ _______ _____ _____    ______ ____
ROOT
ATOM      1  C   UNL     1     -57.577 -39.133 -62.327  0.00  0.00    +0.000 A 
ATOM      2  N   UNL     1     -58.895 -39.504 -62.072  0.00  0.00    +0.000 N 
ATOM      3  C   UNL     1     -59.907 -38.544 -61.862  0.00  0.00    +0.000 A 
ATOM      4  C   UNL     1     -61.274 -38.859 -61.989  0.00  0.00    +0.000 A 
ATOM      5 CL   UNL     1     -61.773 -40.408 -62.572  0.00  0.00    +0.000 Cl
ATOM      6  C   UNL     1     -62.260 -37.924 -61.675  0.00  0.00    +0.000 A 
ATOM      7  C   UNL     1     -61.889 -36.653 -61.231  0.00  0.00    +0.000 A 
ATOM      8  C   UNL     1     -60.534 -36.316 -61.113  0.00  0.00    +0.000 A 
ATOM      9 CL   UNL     1     -60.200 -34.696 -60.619  0.00  0.00    +0.000 Cl
ATOM     10  C   UNL     1     -59.547 -37.265 -61.416  0.00  0.00    +0.000 A 
ATOM     11  C   UNL     1     -58.087 -37.046 -61.251  0.00  0.00    +0.000 A 
ATOM     12  O   UNL     1     -57.693 -36.252 -60.406  0.00  0.00    +0.000 OA
ATOM     13  C   UNL     1     -57.110 -37.878 -62.074  0.00  0.00    +0.000 A 
ATOM     14  H   UNL     1     -59.188 -40.351 -62.577  0.00  0.00    +0.000 HD
ENDROOT
BRANCH   1  15
ATOM     15  S   UNL     1     -56.683 -40.449 -63.249  0.00  0.00    +0.000 S 
ATOM     16  O   UNL     1     -57.385 -40.490 -64.580  0.00  0.00    +0.000 OA
BRANCH  15  17
ATOM     17  C   UNL     1     -57.147 -41.975 -62.334  0.00  0.00    +0.000 C 
BRANCH  17  21
ATOM     18  C   UNL     1     -53.234 -45.336 -61.980  0.00  0.00    +0.000 C 
ATOM     19  C   UNL     1     -54.307 -44.323 -61.886  0.00  0.00    +0.000 A 
ATOM     20  C   UNL     1     -55.172 -43.733 -62.777  0.00  0.00    +0.000 A 
ATOM     21  C   UNL     1     -55.982 -42.868 -61.988  0.00  0.00    +0.000 A 
ATOM     22  N   UNL     1     -55.591 -42.920 -60.703  0.00  0.00    +0.000 NA
ATOM     23  O   UNL     1     -54.554 -43.831 -60.644  0.00  0.00    +0.000 OA
ENDBRANCH  17  21
ENDBRANCH  15  17
ENDBRANCH   1  15
BRANCH  13  24
ATOM     24  C   UNL     1     -55.836 -37.157 -62.464  0.00  0.00    +0.000 C 
ATOM     25  O   UNL     1     -54.796 -37.354 -61.821  0.00  0.00    +0.000 OA
BRANCH  24  26
ATOM     26  C   UNL     1     -55.810 -36.077 -63.529  0.00  0.00    +0.000 C 
ATOM     27  C   UNL     1     -55.457 -34.743 -62.897  0.00  0.00    +0.000 C 
ATOM     28  C   UNL     1     -54.907 -36.458 -64.695  0.00  0.00    +0.000 C 
ENDBRANCH  24  26
ENDBRANCH  13  24
TORSDOF 5
ENDMDL
MODEL 18
REMARK VINA RESULT:    -5.466      3.809      5.469
REMARK INTER + INTRA:          -8.061
REMARK INTER:                  -7.037
REMARK INTRA:                  -1.024
REMARK UNBOUND:                -0.997
REMARK  Name = 
REMARK  8 active torsions:
REMARK  status: ('A' for Active; 'I' for Inactive)
REMARK    1  A    between atoms: C_1  and  C_2
REMARK    2  A    between atoms: C_4  and  C_5
REMARK    3  A    between atoms: C_5  and  S_6
REMARK    4  A    between atoms: S_6  and  C_8
REMARK    5  A    between atoms: C_20  and  C_21
REMARK    6  A    between atoms: C_21  and  C_23
REMARK    7  A    between atoms: C_23  and  C_24
REMARK    8  A    between atoms: C_23  and  C_25
REMARK                            x       y       z     vdW  Elec       q    Type
REMARK                         _______ _______ _______ _____ _____    ______ ____
ROOT
ATOM      1  C   UNL     1     -57.880 -44.300 -77.571  0.00  0.00    +0.000 A 
ATOM      2  N   UNL     1     -56.842 -44.634 -76.704  0.00  0.00    +0.000 N 
ATOM      3  C   UNL     1     -56.246 -45.913 -76.720  0.00  0.00    +0.000 A 
ATOM      4  C   UNL     1     -54.979 -46.154 -76.154  0.00  0.00    +0.000 A 
ATOM      5 CL   UNL     1     -54.017 -44.850 -75.554  0.00  0.00    +0.000 Cl
ATOM      6  C   UNL     1     -54.455 -47.445 -76.088  0.00  0.00    +0.000 A 
ATOM      7  C   UNL     1     -55.196 -48.517 -76.592  0.00  0.00    +0.000 A 
ATOM      8  C   UNL     1     -56.452 -48.295 -77.172  0.00  0.00    +0.000 A 
ATOM      9 CL   UNL     1     -57.241 -49.686 -77.820  0.00  0.00    +0.000 Cl
ATOM     10  C   UNL     1     -56.979 -46.996 -77.223  0.00  0.00    +0.000 A 
ATOM     11  C   UNL     1     -58.329 -46.654 -77.740  0.00  0.00    +0.000 A 
ATOM     12  O   UNL     1     -59.221 -47.493 -77.686  0.00  0.00    +0.000 OA
ATOM     13  C   UNL     1     -58.600 -45.242 -78.243  0.00  0.00    +0.000 A 
ATOM     14  H   UNL     1     -56.203 -43.852 -76.509  0.00  0.00    +0.000 HD
ENDROOT
BRANCH   1  15
ATOM     15  S   UNL     1     -57.953 -42.484 -77.850  0.00  0.00    +0.000 S 
ATOM     16  O   UNL     1     -57.645 -42.337 -79.316  0.00  0.00    +0.000 OA
BRANCH  15  17
ATOM     17  C   UNL     1     -56.494 -41.869 -76.916  0.00  0.00    +0.000 C 
BRANCH  17  21
ATOM     18  C   UNL     1     -57.078 -41.252 -71.815  0.00  0.00    +0.000 C 
ATOM     19  C   UNL     1     -57.015 -41.249 -73.292  0.00  0.00    +0.000 A 
ATOM     20  C   UNL     1     -56.348 -41.989 -74.242  0.00  0.00    +0.000 A 
ATOM     21  C   UNL     1     -56.793 -41.473 -75.491  0.00  0.00    +0.000 A 
ATOM     22  N   UNL     1     -57.652 -40.459 -75.289  0.00  0.00    +0.000 NA
ATOM     23  O   UNL     1     -57.791 -40.328 -73.920  0.00  0.00    +0.000 OA
ENDBRANCH  17  21
ENDBRANCH  15  17
ENDBRANCH   1  15
BRANCH  13  24
ATOM     24  C   UNL     1     -59.587 -45.155 -79.390  0.00  0.00    +0.000 C 
ATOM     25  O   UNL     1     -59.213 -45.406 -80.543  0.00  0.00    +0.000 OA
BRANCH  24  26
ATOM     26  C   UNL     1     -60.996 -44.624 -79.207  0.00  0.00    +0.000 C 
ATOM     27  C   UNL     1     -61.410 -44.759 -77.753  0.00  0.00    +0.000 C 
ATOM     28  C   UNL     1     -61.139 -43.208 -79.752  0.00  0.00    +0.000 C 
ENDBRANCH  24  26
ENDBRANCH  13  24
TORSDOF 5
ENDMDL
MODEL 19
REMARK VINA RESULT:    -5.320      9.351     12.825
REMARK INTER + INTRA:          -7.872
REMARK INTER:                  -7.221
REMARK INTRA:                  -0.651
REMARK UNBOUND:                -0.997
REMARK  Name = 
REMARK  8 active torsions:
REMARK  status: ('A' for Active; 'I' for Inactive)
REMARK    1  A    between atoms: C_1  and  C_2
REMARK    2  A    between atoms: C_4  and  C_5
REMARK    3  A    between atoms: C_5  and  S_6
REMARK    4  A    between atoms: S_6  and  C_8
REMARK    5  A    between atoms: C_20  and  C_21
REMARK    6  A    between atoms: C_21  and  C_23
REMARK    7  A    between atoms: C_23  and  C_24
REMARK    8  A    between atoms: C_23  and  C_25
REMARK                            x       y       z     vdW  Elec       q    Type
REMARK                         _______ _______ _______ _____ _____    ______ ____
ROOT
ATOM      1  C   UNL     1     -64.507 -37.512 -82.528  0.00  0.00    +0.000 A 
ATOM      2  N   UNL     1     -63.525 -38.220 -83.216  0.00  0.00    +0.000 N 
ATOM      3  C   UNL     1     -62.583 -39.025 -82.541  0.00  0.00    +0.000 A 
ATOM      4  C   UNL     1     -61.850 -40.031 -83.202  0.00  0.00    +0.000 A 
ATOM      5 CL   UNL     1     -62.191 -40.437 -84.846  0.00  0.00    +0.000 Cl
ATOM      6  C   UNL     1     -60.850 -40.744 -82.541  0.00  0.00    +0.000 A 
ATOM      7  C   UNL     1     -60.571 -40.460 -81.202  0.00  0.00    +0.000 A 
ATOM      8  C   UNL     1     -61.299 -39.474 -80.523  0.00  0.00    +0.000 A 
ATOM      9 CL   UNL     1     -60.909 -39.261 -78.856  0.00  0.00    +0.000 Cl
ATOM     10  C   UNL     1     -62.294 -38.751 -81.198  0.00  0.00    +0.000 A 
ATOM     11  C   UNL     1     -63.071 -37.632 -80.605  0.00  0.00    +0.000 A 
ATOM     12  O   UNL     1     -62.571 -36.967 -79.706  0.00  0.00    +0.000 OA
ATOM     13  C   UNL     1     -64.435 -37.281 -81.186  0.00  0.00    +0.000 A 
ATOM     14  H   UNL     1     -63.839 -38.579 -84.127  0.00  0.00    +0.000 HD
ENDROOT
BRANCH   1  15
ATOM     15  S   UNL     1     -65.962 -37.181 -83.602  0.00  0.00    +0.000 S 
ATOM     16  O   UNL     1     -66.240 -38.513 -84.244  0.00  0.00    +0.000 OA
BRANCH  15  17
ATOM     17  C   UNL     1     -65.269 -36.078 -84.899  0.00  0.00    +0.000 C 
BRANCH  17  21
ATOM     18  C   UNL     1     -67.543 -31.727 -86.522  0.00  0.00    +0.000 C 
ATOM     19  C   UNL     1     -67.059 -32.995 -85.935  0.00  0.00    +0.000 A 
ATOM     20  C   UNL     1     -66.028 -33.864 -86.206  0.00  0.00    +0.000 A 
ATOM     21  C   UNL     1     -66.119 -34.870 -85.204  0.00  0.00    +0.000 A 
ATOM     22  N   UNL     1     -67.171 -34.625 -84.404  0.00  0.00    +0.000 NA
ATOM     23  O   UNL     1     -67.748 -33.455 -84.859  0.00  0.00    +0.000 OA
ENDBRANCH  17  21
ENDBRANCH  15  17
ENDBRANCH   1  15
BRANCH  13  24
ATOM     24  C   UNL     1     -65.442 -36.769 -80.177  0.00  0.00    +0.000 C 
ATOM     25  O   UNL     1     -65.268 -35.667 -79.639  0.00  0.00    +0.000 OA
BRANCH  24  26
ATOM     26  C   UNL     1     -66.593 -37.621 -79.677  0.00  0.00    +0.000 C 
ATOM     27  C   UNL     1     -67.902 -37.092 -80.234  0.00  0.00    +0.000 C 
ATOM     28  C   UNL     1     -66.363 -39.101 -79.962  0.00  0.00    +0.000 C 
ENDBRANCH  24  26
ENDBRANCH  13  24
TORSDOF 5
ENDMDL
MODEL 20
REMARK VINA RESULT:    -5.261      4.319      6.504
REMARK INTER + INTRA:          -7.796
REMARK INTER:                  -6.874
REMARK INTRA:                  -0.922
REMARK UNBOUND:                -0.997
REMARK  Name = 
REMARK  8 active torsions:
REMARK  status: ('A' for Active; 'I' for Inactive)
REMARK    1  A    between atoms: C_1  and  C_2
REMARK    2  A    between atoms: C_4  and  C_5
REMARK    3  A    between atoms: C_5  and  S_6
REMARK    4  A    between atoms: S_6  and  C_8
REMARK    5  A    between atoms: C_20  and  C_21
REMARK    6  A    between atoms: C_21  and  C_23
REMARK    7  A    between atoms: C_23  and  C_24
REMARK    8  A    between atoms: C_23  and  C_25
REMARK                            x       y       z     vdW  Elec       q    Type
REMARK                         _______ _______ _______ _____ _____    ______ ____
ROOT
ATOM      1  C   UNL     1     -57.964 -44.863 -77.581  0.00  0.00    +0.000 A 
ATOM      2  N   UNL     1     -56.901 -45.394 -76.855  0.00  0.00    +0.000 N 
ATOM      3  C   UNL     1     -56.490 -46.734 -77.015  0.00  0.00    +0.000 A 
ATOM      4  C   UNL     1     -55.218 -47.180 -76.606  0.00  0.00    +0.000 A 
ATOM      5 CL   UNL     1     -54.033 -46.061 -76.032  0.00  0.00    +0.000 Cl
ATOM      6  C   UNL     1     -54.872 -48.529 -76.678  0.00  0.00    +0.000 A 
ATOM      7  C   UNL     1     -55.798 -49.454 -77.167  0.00  0.00    +0.000 A 
ATOM      8  C   UNL     1     -57.062 -49.028 -77.593  0.00  0.00    +0.000 A 
ATOM      9 CL   UNL     1     -58.094 -50.251 -78.238  0.00  0.00    +0.000 Cl
ATOM     10  C   UNL     1     -57.410 -47.671 -77.505  0.00  0.00    +0.000 A 
ATOM     11  C   UNL     1     -58.745 -47.119 -77.850  0.00  0.00    +0.000 A 
ATOM     12  O   UNL     1     -59.733 -47.838 -77.753  0.00  0.00    +0.000 OA
ATOM     13  C   UNL     1     -58.869 -45.649 -78.231  0.00  0.00    +0.000 A 
ATOM     14  H   UNL     1     -56.145 -44.719 -76.680  0.00  0.00    +0.000 HD
ENDROOT
BRANCH   1  15
ATOM     15  S   UNL     1     -57.816 -43.037 -77.736  0.00  0.00    +0.000 S 
ATOM     16  O   UNL     1     -56.964 -42.852 -78.962  0.00  0.00    +0.000 OA
BRANCH  15  17
ATOM     17  C   UNL     1     -56.791 -42.586 -76.278  0.00  0.00    +0.000 C 
BRANCH  17  21
ATOM     18  C   UNL     1     -53.219 -39.134 -77.713  0.00  0.00    +0.000 C 
ATOM     19  C   UNL     1     -54.080 -40.237 -77.237  0.00  0.00    +0.000 A 
ATOM     20  C   UNL     1     -55.433 -40.409 -77.054  0.00  0.00    +0.000 A 
ATOM     21  C   UNL     1     -55.578 -41.753 -76.608  0.00  0.00    +0.000 A 
ATOM     22  N   UNL     1     -54.370 -42.332 -76.501  0.00  0.00    +0.000 NA
ATOM     23  O   UNL     1     -53.443 -41.388 -76.899  0.00  0.00    +0.000 OA
ENDBRANCH  17  21
ENDBRANCH  15  17
ENDBRANCH   1  15
BRANCH  13  24
ATOM     24  C   UNL     1     -59.942 -45.348 -79.256  0.00  0.00    +0.000 C 
ATOM     25  O   UNL     1     -59.779 -45.687 -80.435  0.00  0.00    +0.000 OA
BRANCH  24  26
ATOM     26  C   UNL     1     -61.161 -44.505 -78.929  0.00  0.00    +0.000 C 
ATOM     27  C   UNL     1     -61.353 -43.446 -79.999  0.00  0.00    +0.000 C 
ATOM     28  C   UNL     1     -62.395 -45.367 -78.695  0.00  0.00    +0.000 C 
ENDBRANCH  24  26
ENDBRANCH  13  24
TORSDOF 5
ENDMDL
