REMARK VINA RESULT:    -5.825      2.191      2.388
REMARK INTER + INTRA:          -7.923
REMARK INTER:                  -7.029
REMARK INTRA:                  -0.894
REMARK UNBOUND:                -0.736
REMARK  Name = 
REMARK  6 active torsions:
REMARK  status: ('A' for Active; 'I' for Inactive)
REMARK    1  A    between atoms: C_1  and  C_2
REMARK    2  A    between atoms: C_2  and  C_4
REMARK    3  A    between atoms: C_5  and  S_6
REMARK    4  A    between atoms: S_6  and  C_8
REMARK    5  A    between atoms: C_8  and  C_9
REMARK    6  A    between atoms: C_11  and  C_12
REMARK                            x       y       z     vdW  Elec       q    Type
REMARK                         _______ _______ _______ _____ _____    ______ ____
ROOT
ATOM      1  C   UNL     1     -53.923 -41.783 -79.714  0.00  0.00    +0.000 A 
ATOM      2  C   UNL     1     -54.869 -42.725 -79.500  0.00  0.00    +0.000 A 
ATOM      3  N   UNL     1     -55.048 -43.350 -78.278  0.00  0.00    +0.000 N 
ATOM      4  C   UNL     1     -54.087 -43.263 -77.255  0.00  0.00    +0.000 A 
ATOM      5  C   UNL     1     -54.162 -44.085 -76.117  0.00  0.00    +0.000 A 
ATOM      6 BR   UNL     1     -55.526 -45.395 -75.948  0.00  0.00    +0.000 Br
ATOM      7  C   UNL     1     -53.227 -43.970 -75.092  0.00  0.00    +0.000 A 
ATOM      8  C   UNL     1     -52.206 -43.026 -75.192  0.00  0.00    +0.000 A 
ATOM      9  C   UNL     1     -52.131 -42.178 -76.304  0.00  0.00    +0.000 A 
ATOM     10 CL   UNL     1     -50.783 -41.098 -76.345  0.00  0.00    +0.000 Cl
ATOM     11  C   UNL     1     -53.090 -42.275 -77.325  0.00  0.00    +0.000 A 
ATOM     12  C   UNL     1     -53.136 -41.368 -78.503  0.00  0.00    +0.000 A 
ATOM     13  O   UNL     1     -52.583 -40.275 -78.478  0.00  0.00    +0.000 OA
ATOM     14  H   UNL     1     -55.503 -44.264 -78.343  0.00  0.00    +0.000 HD
ENDROOT
BRANCH   1  16
ATOM     15  C   UNL     1     -54.419 -39.919 -81.469  0.00  0.00    +0.000 C 
ATOM     16  C   UNL     1     -53.624 -41.138 -81.038  0.00  0.00    +0.000 C 
ATOM     17  O   UNL     1     -52.748 -41.583 -81.775  0.00  0.00    +0.000 OA
ENDBRANCH   1  16
BRANCH   2  18
ATOM     18  S   UNL     1     -55.913 -43.370 -80.849  0.00  0.00    +0.000 S 
ATOM     19  O   UNL     1     -55.246 -44.669 -81.209  0.00  0.00    +0.000 OA
BRANCH  18  20
ATOM     20  C   UNL     1     -57.385 -43.805 -79.842  0.00  0.00    +0.000 C 
BRANCH  20  21
ATOM     21  C   UNL     1     -58.208 -42.636 -79.404  0.00  0.00    +0.000 A 
ATOM     22  C   UNL     1     -59.049 -41.763 -80.143  0.00  0.00    +0.000 A 
ATOM     23  C   UNL     1     -59.627 -40.952 -79.196  0.00  0.00    +0.000 A 
ATOM     24  C   UNL     1     -60.599 -39.842 -79.231  0.00  0.00    +0.000 C 
ATOM     25  O   UNL     1     -59.170 -41.310 -77.968  0.00  0.00    +0.000 OA
ATOM     26  N   UNL     1     -58.287 -42.364 -78.091  0.00  0.00    +0.000 NA
ENDBRANCH  20  21
ENDBRANCH  18  20
ENDBRANCH   2  18
TORSDOF 4
