MODEL 1
REMARK VINA RESULT:    -6.961      0.000      0.000
REMARK INTER + INTRA:         -10.234
REMARK INTER:                  -8.996
REMARK INTRA:                  -1.238
REMARK UNBOUND:                -1.238
REMARK  Name = 
REMARK  8 active torsions:
REMARK  status: ('A' for Active; 'I' for Inactive)
REMARK    1  A    between atoms: C_1  and  C_2
REMARK    2  A    between atoms: C_4  and  C_5
REMARK    3  A    between atoms: C_5  and  S_6
REMARK    4  A    between atoms: S_6  and  C_8
REMARK    5  A    between atoms: C_20  and  C_21
REMARK    6  A    between atoms: C_21  and  C_23
REMARK    7  A    between atoms: C_23  and  C_24
REMARK    8  A    between atoms: C_23  and  C_25
REMARK                            x       y       z     vdW  Elec       q    Type
REMARK                         _______ _______ _______ _____ _____    ______ ____
ROOT
ATOM      1  C   UNL     1     -55.443 -41.749 -63.018  0.00  0.00    +0.000 A 
ATOM      2  N   UNL     1     -54.764 -42.963 -63.058  0.00  0.00    +0.000 N 
ATOM      3  C   UNL     1     -53.399 -43.034 -63.399  0.00  0.00    +0.000 A 
ATOM      4  C   UNL     1     -52.597 -44.139 -63.054  0.00  0.00    +0.000 A 
ATOM      5 BR   UNL     1     -53.274 -45.531 -61.959  0.00  0.00    +0.000 Br
ATOM      6  C   UNL     1     -51.266 -44.220 -63.473  0.00  0.00    +0.000 A 
ATOM      7  C   UNL     1     -50.716 -43.196 -64.239  0.00  0.00    +0.000 A 
ATOM      8  C   UNL     1     -51.497 -42.080 -64.589  0.00  0.00    +0.000 A 
ATOM      9 CL   UNL     1     -50.685 -40.843 -65.479  0.00  0.00    +0.000 Cl
ATOM     10  C   UNL     1     -52.843 -42.002 -64.172  0.00  0.00    +0.000 A 
ATOM     11  C   UNL     1     -53.759 -40.884 -64.516  0.00  0.00    +0.000 A 
ATOM     12  O   UNL     1     -53.545 -40.197 -65.510  0.00  0.00    +0.000 OA
ATOM     13  C   UNL     1     -54.969 -40.633 -63.621  0.00  0.00    +0.000 A 
ATOM     14  H   UNL     1     -55.092 -43.648 -62.363  0.00  0.00    +0.000 HD
ENDROOT
BRANCH   1  15
ATOM     15  S   UNL     1     -56.887 -41.824 -61.892  0.00  0.00    +0.000 S 
ATOM     16  O   UNL     1     -56.747 -43.161 -61.217  0.00  0.00    +0.000 OA
BRANCH  15  17
ATOM     17  C   UNL     1     -58.307 -41.902 -63.037  0.00  0.00    +0.000 C 
BRANCH  17  21
ATOM     18  C   UNL     1     -57.378 -42.893 -68.032  0.00  0.00    +0.000 C 
ATOM     19  C   UNL     1     -57.588 -42.807 -66.571  0.00  0.00    +0.000 A 
ATOM     20  C   UNL     1     -57.882 -41.793 -65.687  0.00  0.00    +0.000 A 
ATOM     21  C   UNL     1     -57.975 -42.427 -64.414  0.00  0.00    +0.000 A 
ATOM     22  N   UNL     1     -57.727 -43.742 -64.541  0.00  0.00    +0.000 NA
ATOM     23  O   UNL     1     -57.491 -43.973 -65.883  0.00  0.00    +0.000 OA
ENDBRANCH  17  21
ENDBRANCH  15  17
ENDBRANCH   1  15
BRANCH  13  24
ATOM     24  C   UNL     1     -55.440 -39.200 -63.502  0.00  0.00    +0.000 C 
ATOM     25  O   UNL     1     -56.603 -38.906 -63.776  0.00  0.00    +0.000 OA
BRANCH  24  26
ATOM     26  C   UNL     1     -54.460 -38.096 -63.104  0.00  0.00    +0.000 C 
ATOM     27  C   UNL     1     -54.362 -37.013 -64.176  0.00  0.00    +0.000 C 
ATOM     28  C   UNL     1     -54.819 -37.473 -61.752  0.00  0.00    +0.000 C 
ENDBRANCH  24  26
ENDBRANCH  13  24
TORSDOF 5
ENDMDL
MODEL 2
REMARK VINA RESULT:    -6.826     10.914     13.487
REMARK INTER + INTRA:         -10.059
REMARK INTER:                  -9.000
REMARK INTRA:                  -1.059
REMARK UNBOUND:                -1.238
REMARK  Name = 
REMARK  8 active torsions:
REMARK  status: ('A' for Active; 'I' for Inactive)
REMARK    1  A    between atoms: C_1  and  C_2
REMARK    2  A    between atoms: C_4  and  C_5
REMARK    3  A    between atoms: C_5  and  S_6
REMARK    4  A    between atoms: S_6  and  C_8
REMARK    5  A    between atoms: C_20  and  C_21
REMARK    6  A    between atoms: C_21  and  C_23
REMARK    7  A    between atoms: C_23  and  C_24
REMARK    8  A    between atoms: C_23  and  C_25
REMARK                            x       y       z     vdW  Elec       q    Type
REMARK                         _______ _______ _______ _____ _____    ______ ____
ROOT
ATOM      1  C   UNL     1     -55.686 -42.328 -77.425  0.00  0.00    +0.000 A 
ATOM      2  N   UNL     1     -54.954 -41.150 -77.316  0.00  0.00    +0.000 N 
ATOM      3  C   UNL     1     -53.621 -41.147 -76.861  0.00  0.00    +0.000 A 
ATOM      4  C   UNL     1     -52.740 -40.082 -77.127  0.00  0.00    +0.000 A 
ATOM      5 BR   UNL     1     -53.255 -38.651 -78.261  0.00  0.00    +0.000 Br
ATOM      6  C   UNL     1     -51.447 -40.069 -76.598  0.00  0.00    +0.000 A 
ATOM      7  C   UNL     1     -51.013 -41.123 -75.799  0.00  0.00    +0.000 A 
ATOM      8  C   UNL     1     -51.875 -42.201 -75.527  0.00  0.00    +0.000 A 
ATOM      9 CL   UNL     1     -51.201 -43.482 -74.585  0.00  0.00    +0.000 Cl
ATOM     10  C   UNL     1     -53.182 -42.211 -76.055  0.00  0.00    +0.000 A 
ATOM     11  C   UNL     1     -54.177 -43.284 -75.801  0.00  0.00    +0.000 A 
ATOM     12  O   UNL     1     -54.081 -43.986 -74.799  0.00  0.00    +0.000 OA
ATOM     13  C   UNL     1     -55.319 -43.470 -76.795  0.00  0.00    +0.000 A 
ATOM     14  H   UNL     1     -55.189 -40.445 -78.029  0.00  0.00    +0.000 HD
ENDROOT
BRANCH   1  15
ATOM     15  S   UNL     1     -57.025 -42.175 -78.666  0.00  0.00    +0.000 S 
ATOM     16  O   UNL     1     -56.379 -41.429 -79.802  0.00  0.00    +0.000 OA
BRANCH  15  17
ATOM     17  C   UNL     1     -58.224 -41.064 -77.854  0.00  0.00    +0.000 C 
BRANCH  17  21
ATOM     18  C   UNL     1     -57.945 -40.862 -72.689  0.00  0.00    +0.000 C 
ATOM     19  C   UNL     1     -58.148 -41.083 -74.137  0.00  0.00    +0.000 A 
ATOM     20  C   UNL     1     -57.806 -40.405 -75.284  0.00  0.00    +0.000 A 
ATOM     21  C   UNL     1     -58.297 -41.210 -76.352  0.00  0.00    +0.000 A 
ATOM     22  N   UNL     1     -58.916 -42.295 -75.856  0.00  0.00    +0.000 NA
ATOM     23  O   UNL     1     -58.818 -42.214 -74.480  0.00  0.00    +0.000 OA
ENDBRANCH  17  21
ENDBRANCH  15  17
ENDBRANCH   1  15
BRANCH  13  24
ATOM     24  C   UNL     1     -55.848 -44.876 -76.968  0.00  0.00    +0.000 C 
ATOM     25  O   UNL     1     -57.035 -45.122 -76.758  0.00  0.00    +0.000 OA
BRANCH  24  26
ATOM     26  C   UNL     1     -54.900 -46.017 -77.341  0.00  0.00    +0.000 C 
ATOM     27  C   UNL     1     -54.795 -47.053 -76.224  0.00  0.00    +0.000 C 
ATOM     28  C   UNL     1     -55.305 -46.692 -78.654  0.00  0.00    +0.000 C 
ENDBRANCH  24  26
ENDBRANCH  13  24
TORSDOF 5
ENDMDL
MODEL 3
REMARK VINA RESULT:    -6.671     12.137     13.468
REMARK INTER + INTRA:          -9.859
REMARK INTER:                  -8.838
REMARK INTRA:                  -1.021
REMARK UNBOUND:                -1.238
REMARK  Name = 
REMARK  8 active torsions:
REMARK  status: ('A' for Active; 'I' for Inactive)
REMARK    1  A    between atoms: C_1  and  C_2
REMARK    2  A    between atoms: C_4  and  C_5
REMARK    3  A    between atoms: C_5  and  S_6
REMARK    4  A    between atoms: S_6  and  C_8
REMARK    5  A    between atoms: C_20  and  C_21
REMARK    6  A    between atoms: C_21  and  C_23
REMARK    7  A    between atoms: C_23  and  C_24
REMARK    8  A    between atoms: C_23  and  C_25
REMARK                            x       y       z     vdW  Elec       q    Type
REMARK                         _______ _______ _______ _____ _____    ______ ____
ROOT
ATOM      1  C   UNL     1     -55.559 -42.629 -76.647  0.00  0.00    +0.000 A 
ATOM      2  N   UNL     1     -54.232 -42.957 -76.385  0.00  0.00    +0.000 N 
ATOM      3  C   UNL     1     -53.237 -41.969 -76.261  0.00  0.00    +0.000 A 
ATOM      4  C   UNL     1     -52.017 -42.212 -75.602  0.00  0.00    +0.000 A 
ATOM      5 BR   UNL     1     -51.708 -43.849 -74.694  0.00  0.00    +0.000 Br
ATOM      6  C   UNL     1     -51.015 -41.238 -75.561  0.00  0.00    +0.000 A 
ATOM      7  C   UNL     1     -51.220 -40.005 -76.174  0.00  0.00    +0.000 A 
ATOM      8  C   UNL     1     -52.435 -39.739 -76.831  0.00  0.00    +0.000 A 
ATOM      9 CL   UNL     1     -52.600 -38.152 -77.491  0.00  0.00    +0.000 Cl
ATOM     10  C   UNL     1     -53.443 -40.724 -76.878  0.00  0.00    +0.000 A 
ATOM     11  C   UNL     1     -54.745 -40.554 -77.574  0.00  0.00    +0.000 A 
ATOM     12  O   UNL     1     -54.851 -39.743 -78.489  0.00  0.00    +0.000 OA
ATOM     13  C   UNL     1     -55.923 -41.420 -77.138  0.00  0.00    +0.000 A 
ATOM     14  H   UNL     1     -54.119 -43.790 -75.790  0.00  0.00    +0.000 HD
ENDROOT
BRANCH   1  15
ATOM     15  S   UNL     1     -56.704 -43.928 -76.048  0.00  0.00    +0.000 S 
ATOM     16  O   UNL     1     -57.348 -43.308 -74.837  0.00  0.00    +0.000 OA
BRANCH  15  17
ATOM     17  C   UNL     1     -55.580 -45.253 -75.491  0.00  0.00    +0.000 C 
BRANCH  17  21
ATOM     18  C   UNL     1     -55.284 -49.862 -77.830  0.00  0.00    +0.000 C 
ATOM     19  C   UNL     1     -55.411 -48.469 -77.349  0.00  0.00    +0.000 A 
ATOM     20  C   UNL     1     -55.416 -47.860 -76.115  0.00  0.00    +0.000 A 
ATOM     21  C   UNL     1     -55.548 -46.468 -76.388  0.00  0.00    +0.000 A 
ATOM     22  N   UNL     1     -55.638 -46.271 -77.715  0.00  0.00    +0.000 NA
ATOM     23  O   UNL     1     -55.549 -47.516 -78.307  0.00  0.00    +0.000 OA
ENDBRANCH  17  21
ENDBRANCH  15  17
ENDBRANCH   1  15
BRANCH  13  24
ATOM     24  C   UNL     1     -57.301 -40.811 -77.273  0.00  0.00    +0.000 C 
ATOM     25  O   UNL     1     -57.707 -40.009 -76.434  0.00  0.00    +0.000 OA
BRANCH  24  26
ATOM     26  C   UNL     1     -58.225 -41.236 -78.415  0.00  0.00    +0.000 C 
ATOM     27  C   UNL     1     -57.469 -41.997 -79.501  0.00  0.00    +0.000 C 
ATOM     28  C   UNL     1     -59.411 -42.065 -77.913  0.00  0.00    +0.000 C 
ENDBRANCH  24  26
ENDBRANCH  13  24
TORSDOF 5
ENDMDL
MODEL 4
REMARK VINA RESULT:    -6.550      3.408      5.603
REMARK INTER + INTRA:          -9.703
REMARK INTER:                  -8.797
REMARK INTRA:                  -0.906
REMARK UNBOUND:                -1.238
REMARK  Name = 
REMARK  8 active torsions:
REMARK  status: ('A' for Active; 'I' for Inactive)
REMARK    1  A    between atoms: C_1  and  C_2
REMARK    2  A    between atoms: C_4  and  C_5
REMARK    3  A    between atoms: C_5  and  S_6
REMARK    4  A    between atoms: S_6  and  C_8
REMARK    5  A    between atoms: C_20  and  C_21
REMARK    6  A    between atoms: C_21  and  C_23
REMARK    7  A    between atoms: C_23  and  C_24
REMARK    8  A    between atoms: C_23  and  C_25
REMARK                            x       y       z     vdW  Elec       q    Type
REMARK                         _______ _______ _______ _____ _____    ______ ____
ROOT
ATOM      1  C   UNL     1     -57.663 -40.945 -63.063  0.00  0.00    +0.000 A 
ATOM      2  N   UNL     1     -57.171 -39.733 -62.589  0.00  0.00    +0.000 N 
ATOM      3  C   UNL     1     -56.061 -39.103 -63.185  0.00  0.00    +0.000 A 
ATOM      4  C   UNL     1     -55.801 -37.729 -63.020  0.00  0.00    +0.000 A 
ATOM      5 BR   UNL     1     -57.031 -36.606 -62.112  0.00  0.00    +0.000 Br
ATOM      6  C   UNL     1     -54.651 -37.145 -63.558  0.00  0.00    +0.000 A 
ATOM      7  C   UNL     1     -53.746 -37.924 -64.273  0.00  0.00    +0.000 A 
ATOM      8  C   UNL     1     -53.990 -39.298 -64.455  0.00  0.00    +0.000 A 
ATOM      9 CL   UNL     1     -52.834 -40.145 -65.418  0.00  0.00    +0.000 Cl
ATOM     10  C   UNL     1     -55.147 -39.888 -63.907  0.00  0.00    +0.000 A 
ATOM     11  C   UNL     1     -55.479 -41.332 -64.015  0.00  0.00    +0.000 A 
ATOM     12  O   UNL     1     -54.588 -42.155 -64.204  0.00  0.00    +0.000 OA
ATOM     13  C   UNL     1     -56.936 -41.759 -63.865  0.00  0.00    +0.000 A 
ATOM     14  H   UNL     1     -57.895 -39.108 -62.210  0.00  0.00    +0.000 HD
ENDROOT
BRANCH   1  15
ATOM     15  S   UNL     1     -59.434 -41.160 -62.645  0.00  0.00    +0.000 S 
ATOM     16  O   UNL     1     -59.923 -39.755 -62.420  0.00  0.00    +0.000 OA
BRANCH  15  17
ATOM     17  C   UNL     1     -59.384 -42.019 -61.036  0.00  0.00    +0.000 C 
BRANCH  17  21
ATOM     18  C   UNL     1     -61.729 -46.631 -61.219  0.00  0.00    +0.000 C 
ATOM     19  C   UNL     1     -61.224 -45.250 -61.058  0.00  0.00    +0.000 A 
ATOM     20  C   UNL     1     -60.046 -44.602 -61.354  0.00  0.00    +0.000 A 
ATOM     21  C   UNL     1     -60.255 -43.251 -60.954  0.00  0.00    +0.000 A 
ATOM     22  N   UNL     1     -61.485 -43.117 -60.429  0.00  0.00    +0.000 NA
ATOM     23  O   UNL     1     -62.084 -44.360 -60.499  0.00  0.00    +0.000 OA
ENDBRANCH  17  21
ENDBRANCH  15  17
ENDBRANCH   1  15
BRANCH  13  24
ATOM     24  C   UNL     1     -57.371 -42.979 -64.646  0.00  0.00    +0.000 C 
ATOM     25  O   UNL     1     -57.431 -44.078 -64.094  0.00  0.00    +0.000 OA
BRANCH  24  26
ATOM     26  C   UNL     1     -57.675 -42.873 -66.140  0.00  0.00    +0.000 C 
ATOM     27  C   UNL     1     -57.807 -44.247 -66.791  0.00  0.00    +0.000 C 
ATOM     28  C   UNL     1     -58.927 -42.034 -66.411  0.00  0.00    +0.000 C 
ENDBRANCH  24  26
ENDBRANCH  13  24
TORSDOF 5
ENDMDL
MODEL 5
REMARK VINA RESULT:    -6.202     12.858     14.774
REMARK INTER + INTRA:          -9.252
REMARK INTER:                  -8.072
REMARK INTRA:                  -1.180
REMARK UNBOUND:                -1.238
REMARK  Name = 
REMARK  8 active torsions:
REMARK  status: ('A' for Active; 'I' for Inactive)
REMARK    1  A    between atoms: C_1  and  C_2
REMARK    2  A    between atoms: C_4  and  C_5
REMARK    3  A    between atoms: C_5  and  S_6
REMARK    4  A    between atoms: S_6  and  C_8
REMARK    5  A    between atoms: C_20  and  C_21
REMARK    6  A    between atoms: C_21  and  C_23
REMARK    7  A    between atoms: C_23  and  C_24
REMARK    8  A    between atoms: C_23  and  C_25
REMARK                            x       y       z     vdW  Elec       q    Type
REMARK                         _______ _______ _______ _____ _____    ______ ____
ROOT
ATOM      1  C   UNL     1     -54.582 -41.934 -77.115  0.00  0.00    +0.000 A 
ATOM      2  N   UNL     1     -55.856 -42.128 -77.641  0.00  0.00    +0.000 N 
ATOM      3  C   UNL     1     -56.117 -41.980 -79.017  0.00  0.00    +0.000 A 
ATOM      4  C   UNL     1     -57.245 -42.556 -79.632  0.00  0.00    +0.000 A 
ATOM      5 BR   UNL     1     -58.400 -43.710 -78.666  0.00  0.00    +0.000 Br
ATOM      6  C   UNL     1     -57.522 -42.329 -80.983  0.00  0.00    +0.000 A 
ATOM      7  C   UNL     1     -56.673 -41.527 -81.740  0.00  0.00    +0.000 A 
ATOM      8  C   UNL     1     -55.537 -40.947 -81.147  0.00  0.00    +0.000 A 
ATOM      9 CL   UNL     1     -54.523 -40.032 -82.202  0.00  0.00    +0.000 Cl
ATOM     10  C   UNL     1     -55.261 -41.171 -79.782  0.00  0.00    +0.000 A 
ATOM     11  C   UNL     1     -54.108 -40.579 -79.056  0.00  0.00    +0.000 A 
ATOM     12  O   UNL     1     -53.586 -39.548 -79.467  0.00  0.00    +0.000 OA
ATOM     13  C   UNL     1     -53.613 -41.270 -77.788  0.00  0.00    +0.000 A 
ATOM     14  H   UNL     1     -56.404 -42.849 -77.152  0.00  0.00    +0.000 HD
ENDROOT
BRANCH   1  15
ATOM     15  S   UNL     1     -54.354 -42.860 -75.550  0.00  0.00    +0.000 S 
ATOM     16  O   UNL     1     -53.120 -43.685 -75.797  0.00  0.00    +0.000 OA
BRANCH  15  17
ATOM     17  C   UNL     1     -55.797 -43.976 -75.509  0.00  0.00    +0.000 C 
BRANCH  17  21
ATOM     18  C   UNL     1     -54.912 -48.909 -76.807  0.00  0.00    +0.000 C 
ATOM     19  C   UNL     1     -55.177 -47.463 -76.640  0.00  0.00    +0.000 A 
ATOM     20  C   UNL     1     -55.421 -46.635 -75.568  0.00  0.00    +0.000 A 
ATOM     21  C   UNL     1     -55.560 -45.333 -76.130  0.00  0.00    +0.000 A 
ATOM     22  N   UNL     1     -55.426 -45.397 -77.466  0.00  0.00    +0.000 NA
ATOM     23  O   UNL     1     -55.185 -46.721 -77.777  0.00  0.00    +0.000 OA
ENDBRANCH  17  21
ENDBRANCH  15  17
ENDBRANCH   1  15
BRANCH  13  24
ATOM     24  C   UNL     1     -52.136 -41.156 -77.485  0.00  0.00    +0.000 C 
ATOM     25  O   UNL     1     -51.313 -41.742 -78.188  0.00  0.00    +0.000 OA
BRANCH  24  26
ATOM     26  C   UNL     1     -51.656 -40.368 -76.266  0.00  0.00    +0.000 C 
ATOM     27  C   UNL     1     -50.235 -40.756 -75.864  0.00  0.00    +0.000 C 
ATOM     28  C   UNL     1     -51.750 -38.856 -76.489  0.00  0.00    +0.000 C 
ENDBRANCH  24  26
ENDBRANCH  13  24
TORSDOF 5
ENDMDL
MODEL 6
REMARK VINA RESULT:    -6.147      3.368      5.758
REMARK INTER + INTRA:          -9.182
REMARK INTER:                  -7.855
REMARK INTRA:                  -1.327
REMARK UNBOUND:                -1.238
REMARK  Name = 
REMARK  8 active torsions:
REMARK  status: ('A' for Active; 'I' for Inactive)
REMARK    1  A    between atoms: C_1  and  C_2
REMARK    2  A    between atoms: C_4  and  C_5
REMARK    3  A    between atoms: C_5  and  S_6
REMARK    4  A    between atoms: S_6  and  C_8
REMARK    5  A    between atoms: C_20  and  C_21
REMARK    6  A    between atoms: C_21  and  C_23
REMARK    7  A    between atoms: C_23  and  C_24
REMARK    8  A    between atoms: C_23  and  C_25
REMARK                            x       y       z     vdW  Elec       q    Type
REMARK                         _______ _______ _______ _____ _____    ______ ____
ROOT
ATOM      1  C   UNL     1     -57.724 -40.658 -63.180  0.00  0.00    +0.000 A 
ATOM      2  N   UNL     1     -57.210 -39.440 -62.747  0.00  0.00    +0.000 N 
ATOM      3  C   UNL     1     -56.060 -38.874 -63.331  0.00  0.00    +0.000 A 
ATOM      4  C   UNL     1     -55.761 -37.503 -63.222  0.00  0.00    +0.000 A 
ATOM      5 BR   UNL     1     -56.986 -36.299 -62.415  0.00  0.00    +0.000 Br
ATOM      6  C   UNL     1     -54.574 -36.982 -63.743  0.00  0.00    +0.000 A 
ATOM      7  C   UNL     1     -53.669 -37.823 -64.385  0.00  0.00    +0.000 A 
ATOM      8  C   UNL     1     -53.952 -39.195 -64.511  0.00  0.00    +0.000 A 
ATOM      9 CL   UNL     1     -52.790 -40.123 -65.389  0.00  0.00    +0.000 Cl
ATOM     10  C   UNL     1     -55.147 -39.722 -63.979  0.00  0.00    +0.000 A 
ATOM     11  C   UNL     1     -55.521 -41.159 -64.031  0.00  0.00    +0.000 A 
ATOM     12  O   UNL     1     -54.652 -42.017 -64.146  0.00  0.00    +0.000 OA
ATOM     13  C   UNL     1     -56.996 -41.532 -63.915  0.00  0.00    +0.000 A 
ATOM     14  H   UNL     1     -57.927 -38.775 -62.426  0.00  0.00    +0.000 HD
ENDROOT
BRANCH   1  15
ATOM     15  S   UNL     1     -59.516 -40.797 -62.820  0.00  0.00    +0.000 S 
ATOM     16  O   UNL     1     -59.916 -39.397 -62.441  0.00  0.00    +0.000 OA
BRANCH  15  17
ATOM     17  C   UNL     1     -59.562 -41.838 -61.321  0.00  0.00    +0.000 C 
BRANCH  17  21
ATOM     18  C   UNL     1     -55.267 -42.182 -58.452  0.00  0.00    +0.000 C 
ATOM     19  C   UNL     1     -56.508 -41.889 -59.202  0.00  0.00    +0.000 A 
ATOM     20  C   UNL     1     -57.256 -42.555 -60.145  0.00  0.00    +0.000 A 
ATOM     21  C   UNL     1     -58.358 -41.695 -60.420  0.00  0.00    +0.000 A 
ATOM     22  N   UNL     1     -58.250 -40.570 -59.691  0.00  0.00    +0.000 NA
ATOM     23  O   UNL     1     -57.101 -40.697 -58.934  0.00  0.00    +0.000 OA
ENDBRANCH  17  21
ENDBRANCH  15  17
ENDBRANCH   1  15
BRANCH  13  24
ATOM     24  C   UNL     1     -57.442 -42.775 -64.652  0.00  0.00    +0.000 C 
ATOM     25  O   UNL     1     -57.522 -43.851 -64.060  0.00  0.00    +0.000 OA
BRANCH  24  26
ATOM     26  C   UNL     1     -57.734 -42.721 -66.153  0.00  0.00    +0.000 C 
ATOM     27  C   UNL     1     -57.872 -44.118 -66.753  0.00  0.00    +0.000 C 
ATOM     28  C   UNL     1     -58.977 -41.884 -66.464  0.00  0.00    +0.000 C 
ENDBRANCH  24  26
ENDBRANCH  13  24
TORSDOF 5
ENDMDL
MODEL 7
REMARK VINA RESULT:    -5.997     11.814     14.592
REMARK INTER + INTRA:          -8.988
REMARK INTER:                  -7.977
REMARK INTRA:                  -1.011
REMARK UNBOUND:                -1.238
REMARK  Name = 
REMARK  8 active torsions:
REMARK  status: ('A' for Active; 'I' for Inactive)
REMARK    1  A    between atoms: C_1  and  C_2
REMARK    2  A    between atoms: C_4  and  C_5
REMARK    3  A    between atoms: C_5  and  S_6
REMARK    4  A    between atoms: S_6  and  C_8
REMARK    5  A    between atoms: C_20  and  C_21
REMARK    6  A    between atoms: C_21  and  C_23
REMARK    7  A    between atoms: C_23  and  C_24
REMARK    8  A    between atoms: C_23  and  C_25
REMARK                            x       y       z     vdW  Elec       q    Type
REMARK                         _______ _______ _______ _____ _____    ______ ____
ROOT
ATOM      1  C   UNL     1     -54.633 -42.646 -77.660  0.00  0.00    +0.000 A 
ATOM      2  N   UNL     1     -55.884 -42.918 -78.206  0.00  0.00    +0.000 N 
ATOM      3  C   UNL     1     -56.196 -42.587 -79.539  0.00  0.00    +0.000 A 
ATOM      4  C   UNL     1     -57.255 -43.200 -80.235  0.00  0.00    +0.000 A 
ATOM      5 BR   UNL     1     -58.227 -44.635 -79.465  0.00  0.00    +0.000 Br
ATOM      6  C   UNL     1     -57.592 -42.797 -81.530  0.00  0.00    +0.000 A 
ATOM      7  C   UNL     1     -56.873 -41.780 -82.151  0.00  0.00    +0.000 A 
ATOM      8  C   UNL     1     -55.806 -41.159 -81.475  0.00  0.00    +0.000 A 
ATOM      9 CL   UNL     1     -54.945 -39.962 -82.372  0.00  0.00    +0.000 Cl
ATOM     10  C   UNL     1     -55.471 -41.561 -80.166  0.00  0.00    +0.000 A 
ATOM     11  C   UNL     1     -54.385 -40.948 -79.357  0.00  0.00    +0.000 A 
ATOM     12  O   UNL     1     -54.011 -39.804 -79.598  0.00  0.00    +0.000 OA
ATOM     13  C   UNL     1     -53.774 -41.762 -78.221  0.00  0.00    +0.000 A 
ATOM     14  H   UNL     1     -56.322 -43.774 -77.839  0.00  0.00    +0.000 HD
ENDROOT
BRANCH   1  15
ATOM     15  S   UNL     1     -54.249 -43.773 -76.267  0.00  0.00    +0.000 S 
ATOM     16  O   UNL     1     -55.377 -44.769 -76.289  0.00  0.00    +0.000 OA
BRANCH  15  17
ATOM     17  C   UNL     1     -54.447 -42.708 -74.799  0.00  0.00    +0.000 C 
BRANCH  17  21
ATOM     18  C   UNL     1     -59.256 -41.979 -73.026  0.00  0.00    +0.000 C 
ATOM     19  C   UNL     1     -57.932 -42.053 -73.682  0.00  0.00    +0.000 A 
ATOM     20  C   UNL     1     -56.726 -42.643 -73.379  0.00  0.00    +0.000 A 
ATOM     21  C   UNL     1     -55.876 -42.335 -74.481  0.00  0.00    +0.000 A 
ATOM     22  N   UNL     1     -56.543 -41.585 -75.375  0.00  0.00    +0.000 NA
ATOM     23  O   UNL     1     -57.820 -41.416 -74.876  0.00  0.00    +0.000 OA
ENDBRANCH  17  21
ENDBRANCH  15  17
ENDBRANCH   1  15
BRANCH  13  24
ATOM     24  C   UNL     1     -52.317 -41.505 -77.908  0.00  0.00    +0.000 C 
ATOM     25  O   UNL     1     -51.440 -41.911 -78.670  0.00  0.00    +0.000 OA
BRANCH  24  26
ATOM     26  C   UNL     1     -51.917 -40.799 -76.612  0.00  0.00    +0.000 C 
ATOM     27  C   UNL     1     -50.474 -41.108 -76.221  0.00  0.00    +0.000 C 
ATOM     28  C   UNL     1     -52.132 -39.285 -76.696  0.00  0.00    +0.000 C 
ENDBRANCH  24  26
ENDBRANCH  13  24
TORSDOF 5
ENDMDL
MODEL 8
REMARK VINA RESULT:    -5.992     11.203     13.893
REMARK INTER + INTRA:          -8.982
REMARK INTER:                  -8.193
REMARK INTRA:                  -0.789
REMARK UNBOUND:                -1.238
REMARK  Name = 
REMARK  8 active torsions:
REMARK  status: ('A' for Active; 'I' for Inactive)
REMARK    1  A    between atoms: C_1  and  C_2
REMARK    2  A    between atoms: C_4  and  C_5
REMARK    3  A    between atoms: C_5  and  S_6
REMARK    4  A    between atoms: S_6  and  C_8
REMARK    5  A    between atoms: C_20  and  C_21
REMARK    6  A    between atoms: C_21  and  C_23
REMARK    7  A    between atoms: C_23  and  C_24
REMARK    8  A    between atoms: C_23  and  C_25
REMARK                            x       y       z     vdW  Elec       q    Type
REMARK                         _______ _______ _______ _____ _____    ______ ____
ROOT
ATOM      1  C   UNL     1     -57.744 -43.577 -77.085  0.00  0.00    +0.000 A 
ATOM      2  N   UNL     1     -57.677 -44.876 -77.580  0.00  0.00    +0.000 N 
ATOM      3  C   UNL     1     -56.772 -45.820 -77.058  0.00  0.00    +0.000 A 
ATOM      4  C   UNL     1     -56.953 -47.206 -77.227  0.00  0.00    +0.000 A 
ATOM      5 BR   UNL     1     -58.526 -47.892 -78.034  0.00  0.00    +0.000 Br
ATOM      6  C   UNL     1     -55.998 -48.117 -76.767  0.00  0.00    +0.000 A 
ATOM      7  C   UNL     1     -54.851 -47.657 -76.127  0.00  0.00    +0.000 A 
ATOM      8  C   UNL     1     -54.654 -46.277 -75.941  0.00  0.00    +0.000 A 
ATOM      9 CL   UNL     1     -53.231 -45.831 -75.071  0.00  0.00    +0.000 Cl
ATOM     10  C   UNL     1     -55.614 -45.357 -76.412  0.00  0.00    +0.000 A 
ATOM     11  C   UNL     1     -55.484 -43.882 -76.294  0.00  0.00    +0.000 A 
ATOM     12  O   UNL     1     -54.375 -43.369 -76.178  0.00  0.00    +0.000 OA
ATOM     13  C   UNL     1     -56.750 -43.032 -76.344  0.00  0.00    +0.000 A 
ATOM     14  H   UNL     1     -58.582 -45.248 -77.900  0.00  0.00    +0.000 HD
ENDROOT
BRANCH   1  15
ATOM     15  S   UNL     1     -59.392 -42.831 -77.377  0.00  0.00    +0.000 S 
ATOM     16  O   UNL     1     -60.324 -44.012 -77.394  0.00  0.00    +0.000 OA
BRANCH  15  17
ATOM     17  C   UNL     1     -59.260 -42.175 -79.075  0.00  0.00    +0.000 C 
BRANCH  17  21
ATOM     18  C   UNL     1     -61.494 -37.506 -78.974  0.00  0.00    +0.000 C 
ATOM     19  C   UNL     1     -60.907 -38.844 -79.204  0.00  0.00    +0.000 A 
ATOM     20  C   UNL     1     -60.151 -39.718 -78.456  0.00  0.00    +0.000 A 
ATOM     21  C   UNL     1     -59.959 -40.854 -79.294  0.00  0.00    +0.000 A 
ATOM     22  N   UNL     1     -60.555 -40.649 -80.482  0.00  0.00    +0.000 NA
ATOM     23  O   UNL     1     -61.145 -39.401 -80.419  0.00  0.00    +0.000 OA
ENDBRANCH  17  21
ENDBRANCH  15  17
ENDBRANCH   1  15
BRANCH  13  24
ATOM     24  C   UNL     1     -56.738 -41.746 -75.547  0.00  0.00    +0.000 C 
ATOM     25  O   UNL     1     -56.289 -40.714 -76.044  0.00  0.00    +0.000 OA
BRANCH  24  26
ATOM     26  C   UNL     1     -57.222 -41.732 -74.096  0.00  0.00    +0.000 C 
ATOM     27  C   UNL     1     -56.123 -42.167 -73.129  0.00  0.00    +0.000 C 
ATOM     28  C   UNL     1     -57.775 -40.364 -73.691  0.00  0.00    +0.000 C 
ENDBRANCH  24  26
ENDBRANCH  13  24
TORSDOF 5
ENDMDL
MODEL 9
REMARK VINA RESULT:    -5.981     13.054     15.615
REMARK INTER + INTRA:          -8.967
REMARK INTER:                  -8.184
REMARK INTRA:                  -0.783
REMARK UNBOUND:                -1.238
REMARK  Name = 
REMARK  8 active torsions:
REMARK  status: ('A' for Active; 'I' for Inactive)
REMARK    1  A    between atoms: C_1  and  C_2
REMARK    2  A    between atoms: C_4  and  C_5
REMARK    3  A    between atoms: C_5  and  S_6
REMARK    4  A    between atoms: S_6  and  C_8
REMARK    5  A    between atoms: C_20  and  C_21
REMARK    6  A    between atoms: C_21  and  C_23
REMARK    7  A    between atoms: C_23  and  C_24
REMARK    8  A    between atoms: C_23  and  C_25
REMARK                            x       y       z     vdW  Elec       q    Type
REMARK                         _______ _______ _______ _____ _____    ______ ____
ROOT
ATOM      1  C   UNL     1     -54.137 -41.729 -78.343  0.00  0.00    +0.000 A 
ATOM      2  N   UNL     1     -55.469 -42.106 -78.487  0.00  0.00    +0.000 N 
ATOM      3  C   UNL     1     -56.379 -42.024 -77.415  0.00  0.00    +0.000 A 
ATOM      4  C   UNL     1     -57.772 -41.990 -77.616  0.00  0.00    +0.000 A 
ATOM      5 BR   UNL     1     -58.504 -41.888 -79.363  0.00  0.00    +0.000 Br
ATOM      6  C   UNL     1     -58.655 -41.988 -76.532  0.00  0.00    +0.000 A 
ATOM      7  C   UNL     1     -58.159 -42.014 -75.232  0.00  0.00    +0.000 A 
ATOM      8  C   UNL     1     -56.770 -42.041 -75.009  0.00  0.00    +0.000 A 
ATOM      9 CL   UNL     1     -56.273 -41.999 -73.356  0.00  0.00    +0.000 Cl
ATOM     10  C   UNL     1     -55.879 -42.051 -76.103  0.00  0.00    +0.000 A 
ATOM     11  C   UNL     1     -54.400 -42.111 -75.974  0.00  0.00    +0.000 A 
ATOM     12  O   UNL     1     -53.890 -42.580 -74.961  0.00  0.00    +0.000 OA
ATOM     13  C   UNL     1     -53.547 -41.600 -77.131  0.00  0.00    +0.000 A 
ATOM     14  H   UNL     1     -55.856 -41.923 -79.423  0.00  0.00    +0.000 HD
ENDROOT
BRANCH   1  15
ATOM     15  S   UNL     1     -53.401 -41.239 -79.949  0.00  0.00    +0.000 S 
ATOM     16  O   UNL     1     -54.230 -40.059 -80.378  0.00  0.00    +0.000 OA
BRANCH  15  17
ATOM     17  C   UNL     1     -53.795 -42.649 -81.038  0.00  0.00    +0.000 C 
BRANCH  17  21
ATOM     18  C   UNL     1     -50.024 -42.700 -84.585  0.00  0.00    +0.000 C 
ATOM     19  C   UNL     1     -51.198 -42.822 -83.693  0.00  0.00    +0.000 A 
ATOM     20  C   UNL     1     -51.521 -42.358 -82.439  0.00  0.00    +0.000 A 
ATOM     21  C   UNL     1     -52.843 -42.832 -82.197  0.00  0.00    +0.000 A 
ATOM     22  N   UNL     1     -53.266 -43.555 -83.248  0.00  0.00    +0.000 NA
ATOM     23  O   UNL     1     -52.242 -43.543 -84.176  0.00  0.00    +0.000 OA
ENDBRANCH  17  21
ENDBRANCH  15  17
ENDBRANCH   1  15
BRANCH  13  24
ATOM     24  C   UNL     1     -52.207 -40.997 -76.773  0.00  0.00    +0.000 C 
ATOM     25  O   UNL     1     -51.190 -41.690 -76.796  0.00  0.00    +0.000 OA
BRANCH  24  26
ATOM     26  C   UNL     1     -52.112 -39.541 -76.314  0.00  0.00    +0.000 C 
ATOM     27  C   UNL     1     -50.676 -39.145 -75.981  0.00  0.00    +0.000 C 
ATOM     28  C   UNL     1     -52.703 -38.577 -77.346  0.00  0.00    +0.000 C 
ENDBRANCH  24  26
ENDBRANCH  13  24
TORSDOF 5
ENDMDL
MODEL 10
REMARK VINA RESULT:    -5.773     12.469     15.082
REMARK INTER + INTRA:          -8.699
REMARK INTER:                  -7.736
REMARK INTRA:                  -0.962
REMARK UNBOUND:                -1.238
REMARK  Name = 
REMARK  8 active torsions:
REMARK  status: ('A' for Active; 'I' for Inactive)
REMARK    1  A    between atoms: C_1  and  C_2
REMARK    2  A    between atoms: C_4  and  C_5
REMARK    3  A    between atoms: C_5  and  S_6
REMARK    4  A    between atoms: S_6  and  C_8
REMARK    5  A    between atoms: C_20  and  C_21
REMARK    6  A    between atoms: C_21  and  C_23
REMARK    7  A    between atoms: C_23  and  C_24
REMARK    8  A    between atoms: C_23  and  C_25
REMARK                            x       y       z     vdW  Elec       q    Type
REMARK                         _______ _______ _______ _____ _____    ______ ____
ROOT
ATOM      1  C   UNL     1     -54.403 -43.395 -78.482  0.00  0.00    +0.000 A 
ATOM      2  N   UNL     1     -54.847 -44.231 -79.502  0.00  0.00    +0.000 N 
ATOM      3  C   UNL     1     -54.295 -44.174 -80.797  0.00  0.00    +0.000 A 
ATOM      4  C   UNL     1     -54.407 -45.243 -81.706  0.00  0.00    +0.000 A 
ATOM      5 BR   UNL     1     -55.173 -46.896 -81.180  0.00  0.00    +0.000 Br
ATOM      6  C   UNL     1     -53.918 -45.130 -83.011  0.00  0.00    +0.000 A 
ATOM      7  C   UNL     1     -53.306 -43.950 -83.424  0.00  0.00    +0.000 A 
ATOM      8  C   UNL     1     -53.177 -42.873 -82.528  0.00  0.00    +0.000 A 
ATOM      9 CL   UNL     1     -52.337 -41.490 -83.131  0.00  0.00    +0.000 Cl
ATOM     10  C   UNL     1     -53.677 -42.984 -81.214  0.00  0.00    +0.000 A 
ATOM     11  C   UNL     1     -53.619 -41.896 -80.204  0.00  0.00    +0.000 A 
ATOM     12  O   UNL     1     -53.532 -40.726 -80.566  0.00  0.00    +0.000 OA
ATOM     13  C   UNL     1     -53.693 -42.268 -78.726  0.00  0.00    +0.000 A 
ATOM     14  H   UNL     1     -55.144 -45.162 -79.178  0.00  0.00    +0.000 HD
ENDROOT
BRANCH   1  15
ATOM     15  S   UNL     1     -54.712 -44.127 -76.831  0.00  0.00    +0.000 S 
ATOM     16  O   UNL     1     -54.514 -45.602 -77.049  0.00  0.00    +0.000 OA
BRANCH  15  17
ATOM     17  C   UNL     1     -56.489 -43.816 -76.560  0.00  0.00    +0.000 C 
BRANCH  17  21
ATOM     18  C   UNL     1     -56.732 -41.363 -72.008  0.00  0.00    +0.000 C 
ATOM     19  C   UNL     1     -56.867 -42.027 -73.322  0.00  0.00    +0.000 A 
ATOM     20  C   UNL     1     -55.989 -42.564 -74.237  0.00  0.00    +0.000 A 
ATOM     21  C   UNL     1     -56.810 -43.075 -75.283  0.00  0.00    +0.000 A 
ATOM     22  N   UNL     1     -58.103 -42.831 -75.007  0.00  0.00    +0.000 NA
ATOM     23  O   UNL     1     -58.133 -42.184 -73.787  0.00  0.00    +0.000 OA
ENDBRANCH  17  21
ENDBRANCH  15  17
ENDBRANCH   1  15
BRANCH  13  24
ATOM     24  C   UNL     1     -52.948 -41.371 -77.762  0.00  0.00    +0.000 C 
ATOM     25  O   UNL     1     -51.782 -41.621 -77.460  0.00  0.00    +0.000 OA
BRANCH  24  26
ATOM     26  C   UNL     1     -53.656 -40.187 -77.104  0.00  0.00    +0.000 C 
ATOM     27  C   UNL     1     -53.163 -38.853 -77.658  0.00  0.00    +0.000 C 
ATOM     28  C   UNL     1     -55.178 -40.286 -77.234  0.00  0.00    +0.000 C 
ENDBRANCH  24  26
ENDBRANCH  13  24
TORSDOF 5
ENDMDL
MODEL 11
REMARK VINA RESULT:    -5.764     15.011     17.579
REMARK INTER + INTRA:          -8.687
REMARK INTER:                  -7.789
REMARK INTRA:                  -0.899
REMARK UNBOUND:                -1.238
REMARK  Name = 
REMARK  8 active torsions:
REMARK  status: ('A' for Active; 'I' for Inactive)
REMARK    1  A    between atoms: C_1  and  C_2
REMARK    2  A    between atoms: C_4  and  C_5
REMARK    3  A    between atoms: C_5  and  S_6
REMARK    4  A    between atoms: S_6  and  C_8
REMARK    5  A    between atoms: C_20  and  C_21
REMARK    6  A    between atoms: C_21  and  C_23
REMARK    7  A    between atoms: C_23  and  C_24
REMARK    8  A    between atoms: C_23  and  C_25
REMARK                            x       y       z     vdW  Elec       q    Type
REMARK                         _______ _______ _______ _____ _____    ______ ____
ROOT
ATOM      1  C   UNL     1     -66.930 -49.492 -54.250  0.00  0.00    +0.000 A 
ATOM      2  N   UNL     1     -67.529 -50.458 -55.053  0.00  0.00    +0.000 N 
ATOM      3  C   UNL     1     -67.705 -51.783 -54.608  0.00  0.00    +0.000 A 
ATOM      4  C   UNL     1     -68.648 -52.650 -55.191  0.00  0.00    +0.000 A 
ATOM      5 BR   UNL     1     -69.859 -52.028 -56.513  0.00  0.00    +0.000 Br
ATOM      6  C   UNL     1     -68.747 -53.983 -54.784  0.00  0.00    +0.000 A 
ATOM      7  C   UNL     1     -67.910 -54.468 -53.784  0.00  0.00    +0.000 A 
ATOM      8  C   UNL     1     -66.965 -53.616 -53.182  0.00  0.00    +0.000 A 
ATOM      9 CL   UNL     1     -66.033 -54.310 -51.906  0.00  0.00    +0.000 Cl
ATOM     10  C   UNL     1     -66.860 -52.273 -53.599  0.00  0.00    +0.000 A 
ATOM     11  C   UNL     1     -65.876 -51.304 -53.051  0.00  0.00    +0.000 A 
ATOM     12  O   UNL     1     -64.839 -51.707 -52.533  0.00  0.00    +0.000 OA
ATOM     13  C   UNL     1     -66.178 -49.813 -53.170  0.00  0.00    +0.000 A 
ATOM     14  H   UNL     1     -68.264 -50.088 -55.672  0.00  0.00    +0.000 HD
ENDROOT
BRANCH   1  15
ATOM     15  S   UNL     1     -67.468 -47.803 -54.715  0.00  0.00    +0.000 S 
ATOM     16  O   UNL     1     -68.747 -47.610 -53.948  0.00  0.00    +0.000 OA
BRANCH  15  17
ATOM     17  C   UNL     1     -67.875 -47.966 -56.486  0.00  0.00    +0.000 C 
BRANCH  17  21
ATOM     18  C   UNL     1     -64.474 -47.229 -60.319  0.00  0.00    +0.000 C 
ATOM     19  C   UNL     1     -65.309 -47.342 -59.103  0.00  0.00    +0.000 A 
ATOM     20  C   UNL     1     -66.587 -47.775 -58.836  0.00  0.00    +0.000 A 
ATOM     21  C   UNL     1     -66.739 -47.637 -57.426  0.00  0.00    +0.000 A 
ATOM     22  N   UNL     1     -65.614 -47.128 -56.895  0.00  0.00    +0.000 NA
ATOM     23  O   UNL     1     -64.727 -46.950 -57.940  0.00  0.00    +0.000 OA
ENDBRANCH  17  21
ENDBRANCH  15  17
ENDBRANCH   1  15
BRANCH  13  24
ATOM     24  C   UNL     1     -65.643 -48.921 -52.071  0.00  0.00    +0.000 C 
ATOM     25  O   UNL     1     -66.371 -48.583 -51.139  0.00  0.00    +0.000 OA
BRANCH  24  26
ATOM     26  C   UNL     1     -64.215 -48.379 -52.142  0.00  0.00    +0.000 C 
ATOM     27  C   UNL     1     -63.883 -47.839 -53.531  0.00  0.00    +0.000 C 
ATOM     28  C   UNL     1     -63.956 -47.307 -51.080  0.00  0.00    +0.000 C 
ENDBRANCH  24  26
ENDBRANCH  13  24
TORSDOF 5
ENDMDL
MODEL 12
REMARK VINA RESULT:    -5.723      3.849      6.054
REMARK INTER + INTRA:          -8.634
REMARK INTER:                  -7.602
REMARK INTRA:                  -1.032
REMARK UNBOUND:                -1.238
REMARK  Name = 
REMARK  8 active torsions:
REMARK  status: ('A' for Active; 'I' for Inactive)
REMARK    1  A    between atoms: C_1  and  C_2
REMARK    2  A    between atoms: C_4  and  C_5
REMARK    3  A    between atoms: C_5  and  S_6
REMARK    4  A    between atoms: S_6  and  C_8
REMARK    5  A    between atoms: C_20  and  C_21
REMARK    6  A    between atoms: C_21  and  C_23
REMARK    7  A    between atoms: C_23  and  C_24
REMARK    8  A    between atoms: C_23  and  C_25
REMARK                            x       y       z     vdW  Elec       q    Type
REMARK                         _______ _______ _______ _____ _____    ______ ____
ROOT
ATOM      1  C   UNL     1     -57.624 -41.023 -62.927  0.00  0.00    +0.000 A 
ATOM      2  N   UNL     1     -57.223 -39.784 -62.436  0.00  0.00    +0.000 N 
ATOM      3  C   UNL     1     -56.159 -39.068 -63.019  0.00  0.00    +0.000 A 
ATOM      4  C   UNL     1     -56.000 -37.681 -62.836  0.00  0.00    +0.000 A 
ATOM      5 BR   UNL     1     -57.311 -36.662 -61.920  0.00  0.00    +0.000 Br
ATOM      6  C   UNL     1     -54.893 -37.009 -63.360  0.00  0.00    +0.000 A 
ATOM      7  C   UNL     1     -53.930 -37.712 -64.080  0.00  0.00    +0.000 A 
ATOM      8  C   UNL     1     -54.074 -39.097 -64.281  0.00  0.00    +0.000 A 
ATOM      9 CL   UNL     1     -52.856 -39.846 -65.249  0.00  0.00    +0.000 Cl
ATOM     10  C   UNL     1     -55.188 -39.776 -63.745  0.00  0.00    +0.000 A 
ATOM     11  C   UNL     1     -55.414 -41.239 -63.873  0.00  0.00    +0.000 A 
ATOM     12  O   UNL     1     -54.465 -41.993 -64.068  0.00  0.00    +0.000 OA
ATOM     13  C   UNL     1     -56.837 -41.772 -63.736  0.00  0.00    +0.000 A 
ATOM     14  H   UNL     1     -57.992 -39.218 -62.053  0.00  0.00    +0.000 HD
ENDROOT
BRANCH   1  15
ATOM     15  S   UNL     1     -59.377 -41.370 -62.521  0.00  0.00    +0.000 S 
ATOM     16  O   UNL     1     -60.146 -40.609 -63.567  0.00  0.00    +0.000 OA
BRANCH  15  17
ATOM     17  C   UNL     1     -59.608 -40.537 -60.914  0.00  0.00    +0.000 C 
BRANCH  17  21
ATOM     18  C   UNL     1     -62.768 -36.437 -60.938  0.00  0.00    +0.000 C 
ATOM     19  C   UNL     1     -62.036 -37.722 -60.907  0.00  0.00    +0.000 A 
ATOM     20  C   UNL     1     -60.730 -38.105 -61.111  0.00  0.00    +0.000 A 
ATOM     21  C   UNL     1     -60.718 -39.513 -60.891  0.00  0.00    +0.000 A 
ATOM     22  N   UNL     1     -61.958 -39.938 -60.594  0.00  0.00    +0.000 NA
ATOM     23  O   UNL     1     -62.772 -38.821 -60.602  0.00  0.00    +0.000 OA
ENDBRANCH  17  21
ENDBRANCH  15  17
ENDBRANCH   1  15
BRANCH  13  24
ATOM     24  C   UNL     1     -57.179 -43.010 -64.534  0.00  0.00    +0.000 C 
ATOM     25  O   UNL     1     -57.363 -44.084 -63.961  0.00  0.00    +0.000 OA
BRANCH  24  26
ATOM     26  C   UNL     1     -57.234 -42.955 -66.061  0.00  0.00    +0.000 C 
ATOM     27  C   UNL     1     -58.018 -44.129 -66.642  0.00  0.00    +0.000 C 
ATOM     28  C   UNL     1     -57.812 -41.629 -66.565  0.00  0.00    +0.000 C 
ENDBRANCH  24  26
ENDBRANCH  13  24
TORSDOF 5
ENDMDL
MODEL 13
REMARK VINA RESULT:    -5.541      3.379      5.566
REMARK INTER + INTRA:          -8.399
REMARK INTER:                  -7.699
REMARK INTRA:                  -0.701
REMARK UNBOUND:                -1.238
REMARK  Name = 
REMARK  8 active torsions:
REMARK  status: ('A' for Active; 'I' for Inactive)
REMARK    1  A    between atoms: C_1  and  C_2
REMARK    2  A    between atoms: C_4  and  C_5
REMARK    3  A    between atoms: C_5  and  S_6
REMARK    4  A    between atoms: S_6  and  C_8
REMARK    5  A    between atoms: C_20  and  C_21
REMARK    6  A    between atoms: C_21  and  C_23
REMARK    7  A    between atoms: C_23  and  C_24
REMARK    8  A    between atoms: C_23  and  C_25
REMARK                            x       y       z     vdW  Elec       q    Type
REMARK                         _______ _______ _______ _____ _____    ______ ____
ROOT
ATOM      1  C   UNL     1     -56.862 -41.040 -61.445  0.00  0.00    +0.000 A 
ATOM      2  N   UNL     1     -56.722 -41.758 -60.260  0.00  0.00    +0.000 N 
ATOM      3  C   UNL     1     -55.712 -42.726 -60.098  0.00  0.00    +0.000 A 
ATOM      4  C   UNL     1     -55.281 -43.154 -58.828  0.00  0.00    +0.000 A 
ATOM      5 BR   UNL     1     -55.928 -42.326 -57.249  0.00  0.00    +0.000 Br
ATOM      6  C   UNL     1     -54.333 -44.172 -58.696  0.00  0.00    +0.000 A 
ATOM      7  C   UNL     1     -53.797 -44.774 -59.831  0.00  0.00    +0.000 A 
ATOM      8  C   UNL     1     -54.208 -44.356 -61.110  0.00  0.00    +0.000 A 
ATOM      9 CL   UNL     1     -53.422 -45.125 -62.441  0.00  0.00    +0.000 Cl
ATOM     10  C   UNL     1     -55.171 -43.333 -61.243  0.00  0.00    +0.000 A 
ATOM     11  C   UNL     1     -55.694 -42.844 -62.545  0.00  0.00    +0.000 A 
ATOM     12  O   UNL     1     -55.652 -43.567 -63.535  0.00  0.00    +0.000 OA
ATOM     13  C   UNL     1     -56.298 -41.444 -62.608  0.00  0.00    +0.000 A 
ATOM     14  H   UNL     1     -56.977 -41.225 -59.417  0.00  0.00    +0.000 HD
ENDROOT
BRANCH   1  15
ATOM     15  S   UNL     1     -57.692 -39.431 -61.161  0.00  0.00    +0.000 S 
ATOM     16  O   UNL     1     -58.493 -39.214 -62.416  0.00  0.00    +0.000 OA
BRANCH  15  17
ATOM     17  C   UNL     1     -56.307 -38.243 -61.147  0.00  0.00    +0.000 C 
BRANCH  17  21
ATOM     18  C   UNL     1     -57.963 -33.628 -62.809  0.00  0.00    +0.000 C 
ATOM     19  C   UNL     1     -57.353 -34.937 -62.489  0.00  0.00    +0.000 A 
ATOM     20  C   UNL     1     -57.488 -35.852 -61.470  0.00  0.00    +0.000 A 
ATOM     21  C   UNL     1     -56.608 -36.920 -61.811  0.00  0.00    +0.000 A 
ATOM     22  N   UNL     1     -55.972 -36.635 -62.961  0.00  0.00    +0.000 NA
ATOM     23  O   UNL     1     -56.441 -35.405 -63.379  0.00  0.00    +0.000 OA
ENDBRANCH  17  21
ENDBRANCH  15  17
ENDBRANCH   1  15
BRANCH  13  24
ATOM     24  C   UNL     1     -56.153 -40.700 -63.916  0.00  0.00    +0.000 C 
ATOM     25  O   UNL     1     -55.263 -39.861 -64.056  0.00  0.00    +0.000 OA
BRANCH  24  26
ATOM     26  C   UNL     1     -57.149 -40.934 -65.053  0.00  0.00    +0.000 C 
ATOM     27  C   UNL     1     -56.483 -41.583 -66.264  0.00  0.00    +0.000 C 
ATOM     28  C   UNL     1     -58.351 -41.766 -64.598  0.00  0.00    +0.000 C 
ENDBRANCH  24  26
ENDBRANCH  13  24
TORSDOF 5
ENDMDL
MODEL 14
REMARK VINA RESULT:    -5.522      3.989      5.469
REMARK INTER + INTRA:          -8.373
REMARK INTER:                  -7.520
REMARK INTRA:                  -0.854
REMARK UNBOUND:                -1.238
REMARK  Name = 
REMARK  8 active torsions:
REMARK  status: ('A' for Active; 'I' for Inactive)
REMARK    1  A    between atoms: C_1  and  C_2
REMARK    2  A    between atoms: C_4  and  C_5
REMARK    3  A    between atoms: C_5  and  S_6
REMARK    4  A    between atoms: S_6  and  C_8
REMARK    5  A    between atoms: C_20  and  C_21
REMARK    6  A    between atoms: C_21  and  C_23
REMARK    7  A    between atoms: C_23  and  C_24
REMARK    8  A    between atoms: C_23  and  C_25
REMARK                            x       y       z     vdW  Elec       q    Type
REMARK                         _______ _______ _______ _____ _____    ______ ____
ROOT
ATOM      1  C   UNL     1     -57.650 -42.580 -61.928  0.00  0.00    +0.000 A 
ATOM      2  N   UNL     1     -56.298 -42.903 -61.848  0.00  0.00    +0.000 N 
ATOM      3  C   UNL     1     -55.683 -43.206 -60.618  0.00  0.00    +0.000 A 
ATOM      4  C   UNL     1     -54.474 -43.923 -60.542  0.00  0.00    +0.000 A 
ATOM      5 BR   UNL     1     -53.682 -44.668 -62.096  0.00  0.00    +0.000 Br
ATOM      6  C   UNL     1     -53.845 -44.143 -59.314  0.00  0.00    +0.000 A 
ATOM      7  C   UNL     1     -54.417 -43.654 -58.143  0.00  0.00    +0.000 A 
ATOM      8  C   UNL     1     -55.629 -42.942 -58.196  0.00  0.00    +0.000 A 
ATOM      9 CL   UNL     1     -56.277 -42.448 -56.674  0.00  0.00    +0.000 Cl
ATOM     10  C   UNL     1     -56.260 -42.714 -59.436  0.00  0.00    +0.000 A 
ATOM     11  C   UNL     1     -57.522 -41.947 -59.602  0.00  0.00    +0.000 A 
ATOM     12  O   UNL     1     -57.854 -41.120 -58.759  0.00  0.00    +0.000 OA
ATOM     13  C   UNL     1     -58.369 -42.198 -60.846  0.00  0.00    +0.000 A 
ATOM     14  H   UNL     1     -55.941 -43.410 -62.670  0.00  0.00    +0.000 HD
ENDROOT
BRANCH   1  15
ATOM     15  S   UNL     1     -58.331 -42.949 -63.589  0.00  0.00    +0.000 S 
ATOM     16  O   UNL     1     -57.445 -44.050 -64.105  0.00  0.00    +0.000 OA
BRANCH  15  17
ATOM     17  C   UNL     1     -57.976 -41.430 -64.535  0.00  0.00    +0.000 C 
BRANCH  17  21
ATOM     18  C   UNL     1     -56.203 -42.530 -69.273  0.00  0.00    +0.000 C 
ATOM     19  C   UNL     1     -56.518 -42.146 -67.880  0.00  0.00    +0.000 A 
ATOM     20  C   UNL     1     -57.664 -42.096 -67.118  0.00  0.00    +0.000 A 
ATOM     21  C   UNL     1     -57.235 -41.656 -65.832  0.00  0.00    +0.000 A 
ATOM     22  N   UNL     1     -55.909 -41.438 -65.845  0.00  0.00    +0.000 NA
ATOM     23  O   UNL     1     -55.468 -41.747 -67.117  0.00  0.00    +0.000 OA
ENDBRANCH  17  21
ENDBRANCH  15  17
ENDBRANCH   1  15
BRANCH  13  24
ATOM     24  C   UNL     1     -59.864 -42.028 -60.695  0.00  0.00    +0.000 C 
ATOM     25  O   UNL     1     -60.393 -40.946 -60.948  0.00  0.00    +0.000 OA
BRANCH  24  26
ATOM     26  C   UNL     1     -60.723 -43.177 -60.166  0.00  0.00    +0.000 C 
ATOM     27  C   UNL     1     -60.472 -44.472 -60.935  0.00  0.00    +0.000 C 
ATOM     28  C   UNL     1     -60.514 -43.402 -58.666  0.00  0.00    +0.000 C 
ENDBRANCH  24  26
ENDBRANCH  13  24
TORSDOF 5
ENDMDL
MODEL 15
REMARK VINA RESULT:    -5.149     11.651     14.716
REMARK INTER + INTRA:          -7.893
REMARK INTER:                  -6.738
REMARK INTRA:                  -1.154
REMARK UNBOUND:                -1.238
REMARK  Name = 
REMARK  8 active torsions:
REMARK  status: ('A' for Active; 'I' for Inactive)
REMARK    1  A    between atoms: C_1  and  C_2
REMARK    2  A    between atoms: C_4  and  C_5
REMARK    3  A    between atoms: C_5  and  S_6
REMARK    4  A    between atoms: S_6  and  C_8
REMARK    5  A    between atoms: C_20  and  C_21
REMARK    6  A    between atoms: C_21  and  C_23
REMARK    7  A    between atoms: C_23  and  C_24
REMARK    8  A    between atoms: C_23  and  C_25
REMARK                            x       y       z     vdW  Elec       q    Type
REMARK                         _______ _______ _______ _____ _____    ______ ____
ROOT
ATOM      1  C   UNL     1     -55.540 -43.621 -77.604  0.00  0.00    +0.000 A 
ATOM      2  N   UNL     1     -56.810 -44.174 -77.741  0.00  0.00    +0.000 N 
ATOM      3  C   UNL     1     -57.523 -44.097 -78.953  0.00  0.00    +0.000 A 
ATOM      4  C   UNL     1     -58.583 -44.972 -79.256  0.00  0.00    +0.000 A 
ATOM      5 BR   UNL     1     -59.010 -46.420 -78.109  0.00  0.00    +0.000 Br
ATOM      6  C   UNL     1     -59.325 -44.823 -80.432  0.00  0.00    +0.000 A 
ATOM      7  C   UNL     1     -59.014 -43.801 -81.324  0.00  0.00    +0.000 A 
ATOM      8  C   UNL     1     -57.953 -42.921 -81.044  0.00  0.00    +0.000 A 
ATOM      9 CL   UNL     1     -57.616 -41.740 -82.258  0.00  0.00    +0.000 Cl
ATOM     10  C   UNL     1     -57.210 -43.066 -79.854  0.00  0.00    +0.000 A 
ATOM     11  C   UNL     1     -56.095 -42.170 -79.452  0.00  0.00    +0.000 A 
ATOM     12  O   UNL     1     -56.034 -41.028 -79.895  0.00  0.00    +0.000 OA
ATOM     13  C   UNL     1     -55.055 -42.698 -78.468  0.00  0.00    +0.000 A 
ATOM     14  H   UNL     1     -56.956 -45.028 -77.185  0.00  0.00    +0.000 HD
ENDROOT
BRANCH   1  15
ATOM     15  S   UNL     1     -54.584 -44.454 -76.281  0.00  0.00    +0.000 S 
ATOM     16  O   UNL     1     -55.470 -45.596 -75.862  0.00  0.00    +0.000 OA
BRANCH  15  17
ATOM     17  C   UNL     1     -54.561 -43.218 -74.939  0.00  0.00    +0.000 C 
BRANCH  17  21
ATOM     18  C   UNL     1     -59.389 -42.207 -73.367  0.00  0.00    +0.000 C 
ATOM     19  C   UNL     1     -57.999 -42.295 -73.866  0.00  0.00    +0.000 A 
ATOM     20  C   UNL     1     -57.028 -43.270 -73.877  0.00  0.00    +0.000 A 
ATOM     21  C   UNL     1     -55.921 -42.683 -74.555  0.00  0.00    +0.000 A 
ATOM     22  N   UNL     1     -56.220 -41.420 -74.905  0.00  0.00    +0.000 NA
ATOM     23  O   UNL     1     -57.513 -41.185 -74.478  0.00  0.00    +0.000 OA
ENDBRANCH  17  21
ENDBRANCH  15  17
ENDBRANCH   1  15
BRANCH  13  24
ATOM     24  C   UNL     1     -53.649 -42.160 -78.612  0.00  0.00    +0.000 C 
ATOM     25  O   UNL     1     -52.946 -42.511 -79.559  0.00  0.00    +0.000 OA
BRANCH  24  26
ATOM     26  C   UNL     1     -53.065 -41.228 -77.549  0.00  0.00    +0.000 C 
ATOM     27  C   UNL     1     -51.556 -41.412 -77.402  0.00  0.00    +0.000 C 
ATOM     28  C   UNL     1     -53.396 -39.760 -77.830  0.00  0.00    +0.000 C 
ENDBRANCH  24  26
ENDBRANCH  13  24
TORSDOF 5
ENDMDL
MODEL 16
REMARK VINA RESULT:    -4.970      3.830      6.071
REMARK INTER + INTRA:          -7.661
REMARK INTER:                  -6.700
REMARK INTRA:                  -0.962
REMARK UNBOUND:                -1.238
REMARK  Name = 
REMARK  8 active torsions:
REMARK  status: ('A' for Active; 'I' for Inactive)
REMARK    1  A    between atoms: C_1  and  C_2
REMARK    2  A    between atoms: C_4  and  C_5
REMARK    3  A    between atoms: C_5  and  S_6
REMARK    4  A    between atoms: S_6  and  C_8
REMARK    5  A    between atoms: C_20  and  C_21
REMARK    6  A    between atoms: C_21  and  C_23
REMARK    7  A    between atoms: C_23  and  C_24
REMARK    8  A    between atoms: C_23  and  C_25
REMARK                            x       y       z     vdW  Elec       q    Type
REMARK                         _______ _______ _______ _____ _____    ______ ____
ROOT
ATOM      1  C   UNL     1     -57.541 -41.062 -62.587  0.00  0.00    +0.000 A 
ATOM      2  N   UNL     1     -56.863 -40.027 -63.224  0.00  0.00    +0.000 N 
ATOM      3  C   UNL     1     -57.009 -38.687 -62.815  0.00  0.00    +0.000 A 
ATOM      4  C   UNL     1     -56.060 -37.698 -63.135  0.00  0.00    +0.000 A 
ATOM      5 BR   UNL     1     -54.435 -38.150 -64.004  0.00  0.00    +0.000 Br
ATOM      6  C   UNL     1     -56.269 -36.361 -62.785  0.00  0.00    +0.000 A 
ATOM      7  C   UNL     1     -57.426 -35.993 -62.105  0.00  0.00    +0.000 A 
ATOM      8  C   UNL     1     -58.384 -36.968 -61.769  0.00  0.00    +0.000 A 
ATOM      9 CL   UNL     1     -59.743 -36.404 -60.864  0.00  0.00    +0.000 Cl
ATOM     10  C   UNL     1     -58.177 -38.315 -62.129  0.00  0.00    +0.000 A 
ATOM     11  C   UNL     1     -59.140 -39.411 -61.850  0.00  0.00    +0.000 A 
ATOM     12  O   UNL     1     -60.330 -39.157 -61.684  0.00  0.00    +0.000 OA
ATOM     13  C   UNL     1     -58.619 -40.844 -61.797  0.00  0.00    +0.000 A 
ATOM     14  H   UNL     1     -55.933 -40.292 -63.577  0.00  0.00    +0.000 HD
ENDROOT
BRANCH   1  15
ATOM     15  S   UNL     1     -56.665 -42.660 -62.784  0.00  0.00    +0.000 S 
ATOM     16  O   UNL     1     -55.604 -42.622 -61.718  0.00  0.00    +0.000 OA
BRANCH  15  17
ATOM     17  C   UNL     1     -55.856 -42.496 -64.412  0.00  0.00    +0.000 C 
BRANCH  17  21
ATOM     18  C   UNL     1     -59.708 -42.492 -67.870  0.00  0.00    +0.000 C 
ATOM     19  C   UNL     1     -58.493 -42.407 -67.031  0.00  0.00    +0.000 A 
ATOM     20  C   UNL     1     -58.204 -42.645 -65.707  0.00  0.00    +0.000 A 
ATOM     21  C   UNL     1     -56.808 -42.388 -65.579  0.00  0.00    +0.000 A 
ATOM     22  N   UNL     1     -56.308 -41.997 -66.764  0.00  0.00    +0.000 NA
ATOM     23  O   UNL     1     -57.357 -42.014 -67.663  0.00  0.00    +0.000 OA
ENDBRANCH  17  21
ENDBRANCH  15  17
ENDBRANCH   1  15
BRANCH  13  24
ATOM     24  C   UNL     1     -59.335 -41.794 -60.863  0.00  0.00    +0.000 C 
ATOM     25  O   UNL     1     -60.135 -42.616 -61.308  0.00  0.00    +0.000 OA
BRANCH  24  26
ATOM     26  C   UNL     1     -59.122 -41.698 -59.351  0.00  0.00    +0.000 C 
ATOM     27  C   UNL     1     -59.707 -42.904 -58.620  0.00  0.00    +0.000 C 
ATOM     28  C   UNL     1     -57.644 -41.524 -58.992  0.00  0.00    +0.000 C 
ENDBRANCH  24  26
ENDBRANCH  13  24
TORSDOF 5
ENDMDL
MODEL 17
REMARK VINA RESULT:    -4.939     10.452     13.087
REMARK INTER + INTRA:          -7.620
REMARK INTER:                  -6.462
REMARK INTRA:                  -1.159
REMARK UNBOUND:                -1.238
REMARK  Name = 
REMARK  8 active torsions:
REMARK  status: ('A' for Active; 'I' for Inactive)
REMARK    1  A    between atoms: C_1  and  C_2
REMARK    2  A    between atoms: C_4  and  C_5
REMARK    3  A    between atoms: C_5  and  S_6
REMARK    4  A    between atoms: S_6  and  C_8
REMARK    5  A    between atoms: C_20  and  C_21
REMARK    6  A    between atoms: C_21  and  C_23
REMARK    7  A    between atoms: C_23  and  C_24
REMARK    8  A    between atoms: C_23  and  C_25
REMARK                            x       y       z     vdW  Elec       q    Type
REMARK                         _______ _______ _______ _____ _____    ______ ____
ROOT
ATOM      1  C   UNL     1     -65.911 -41.746 -70.132  0.00  0.00    +0.000 A 
ATOM      2  N   UNL     1     -64.611 -41.775 -70.626  0.00  0.00    +0.000 N 
ATOM      3  C   UNL     1     -63.494 -41.816 -69.768  0.00  0.00    +0.000 A 
ATOM      4  C   UNL     1     -62.231 -42.259 -70.203  0.00  0.00    +0.000 A 
ATOM      5 BR   UNL     1     -61.996 -42.984 -71.940  0.00  0.00    +0.000 Br
ATOM      6  C   UNL     1     -61.122 -42.216 -69.353  0.00  0.00    +0.000 A 
ATOM      7  C   UNL     1     -61.261 -41.734 -68.054  0.00  0.00    +0.000 A 
ATOM      8  C   UNL     1     -62.517 -41.294 -67.597  0.00  0.00    +0.000 A 
ATOM      9 CL   UNL     1     -62.581 -40.787 -65.948  0.00  0.00    +0.000 Cl
ATOM     10  C   UNL     1     -63.634 -41.331 -68.457  0.00  0.00    +0.000 A 
ATOM     11  C   UNL     1     -64.992 -40.860 -68.082  0.00  0.00    +0.000 A 
ATOM     12  O   UNL     1     -65.131 -40.035 -67.184  0.00  0.00    +0.000 OA
ATOM     13  C   UNL     1     -66.192 -41.408 -68.850  0.00  0.00    +0.000 A 
ATOM     14  H   UNL     1     -64.514 -42.282 -71.517  0.00  0.00    +0.000 HD
ENDROOT
BRANCH   1  15
ATOM     15  S   UNL     1     -67.107 -42.418 -71.346  0.00  0.00    +0.000 S 
ATOM     16  O   UNL     1     -66.287 -43.377 -72.166  0.00  0.00    +0.000 OA
BRANCH  15  17
ATOM     17  C   UNL     1     -67.510 -40.971 -72.382  0.00  0.00    +0.000 C 
BRANCH  17  21
ATOM     18  C   UNL     1     -70.097 -37.230 -69.909  0.00  0.00    +0.000 C 
ATOM     19  C   UNL     1     -69.544 -38.369 -70.674  0.00  0.00    +0.000 A 
ATOM     20  C   UNL     1     -68.280 -38.778 -71.036  0.00  0.00    +0.000 A 
ATOM     21  C   UNL     1     -68.475 -39.995 -71.751  0.00  0.00    +0.000 A 
ATOM     22  N   UNL     1     -69.788 -40.276 -71.823  0.00  0.00    +0.000 NA
ATOM     23  O   UNL     1     -70.447 -39.265 -71.149  0.00  0.00    +0.000 OA
ENDBRANCH  17  21
ENDBRANCH  15  17
ENDBRANCH   1  15
BRANCH  13  24
ATOM     24  C   UNL     1     -67.490 -41.533 -68.084  0.00  0.00    +0.000 C 
ATOM     25  O   UNL     1     -68.355 -40.665 -68.187  0.00  0.00    +0.000 OA
BRANCH  24  26
ATOM     26  C   UNL     1     -67.711 -42.703 -67.125  0.00  0.00    +0.000 C 
ATOM     27  C   UNL     1     -68.249 -42.234 -65.775  0.00  0.00    +0.000 C 
ATOM     28  C   UNL     1     -68.634 -43.767 -67.724  0.00  0.00    +0.000 C 
ENDBRANCH  24  26
ENDBRANCH  13  24
TORSDOF 5
ENDMDL
MODEL 18
REMARK VINA RESULT:    -4.850     11.159     13.621
REMARK INTER + INTRA:          -7.506
REMARK INTER:                  -6.453
REMARK INTRA:                  -1.053
REMARK UNBOUND:                -1.238
REMARK  Name = 
REMARK  8 active torsions:
REMARK  status: ('A' for Active; 'I' for Inactive)
REMARK    1  A    between atoms: C_1  and  C_2
REMARK    2  A    between atoms: C_4  and  C_5
REMARK    3  A    between atoms: C_5  and  S_6
REMARK    4  A    between atoms: S_6  and  C_8
REMARK    5  A    between atoms: C_20  and  C_21
REMARK    6  A    between atoms: C_21  and  C_23
REMARK    7  A    between atoms: C_23  and  C_24
REMARK    8  A    between atoms: C_23  and  C_25
REMARK                            x       y       z     vdW  Elec       q    Type
REMARK                         _______ _______ _______ _____ _____    ______ ____
ROOT
ATOM      1  C   UNL     1     -65.991 -42.368 -69.989  0.00  0.00    +0.000 A 
ATOM      2  N   UNL     1     -66.984 -42.126 -69.044  0.00  0.00    +0.000 N 
ATOM      3  C   UNL     1     -66.763 -41.280 -67.941  0.00  0.00    +0.000 A 
ATOM      4  C   UNL     1     -67.823 -40.692 -67.224  0.00  0.00    +0.000 A 
ATOM      5 BR   UNL     1     -69.618 -40.879 -67.808  0.00  0.00    +0.000 Br
ATOM      6  C   UNL     1     -67.579 -39.919 -66.085  0.00  0.00    +0.000 A 
ATOM      7  C   UNL     1     -66.273 -39.718 -65.649  0.00  0.00    +0.000 A 
ATOM      8  C   UNL     1     -65.199 -40.290 -66.355  0.00  0.00    +0.000 A 
ATOM      9 CL   UNL     1     -63.622 -39.912 -65.761  0.00  0.00    +0.000 Cl
ATOM     10  C   UNL     1     -65.446 -41.076 -67.500  0.00  0.00    +0.000 A 
ATOM     11  C   UNL     1     -64.386 -41.749 -68.295  0.00  0.00    +0.000 A 
ATOM     12  O   UNL     1     -63.306 -42.017 -67.777  0.00  0.00    +0.000 OA
ATOM     13  C   UNL     1     -64.683 -42.111 -69.747  0.00  0.00    +0.000 A 
ATOM     14  H   UNL     1     -67.937 -42.123 -69.433  0.00  0.00    +0.000 HD
ENDROOT
BRANCH   1  15
ATOM     15  S   UNL     1     -66.704 -42.848 -71.607  0.00  0.00    +0.000 S 
ATOM     16  O   UNL     1     -66.383 -41.681 -72.501  0.00  0.00    +0.000 OA
BRANCH  15  17
ATOM     17  C   UNL     1     -68.501 -42.854 -71.287  0.00  0.00    +0.000 C 
BRANCH  17  21
ATOM     18  C   UNL     1     -70.868 -47.453 -71.072  0.00  0.00    +0.000 C 
ATOM     19  C   UNL     1     -70.117 -46.184 -70.945  0.00  0.00    +0.000 A 
ATOM     20  C   UNL     1     -69.842 -45.128 -71.783  0.00  0.00    +0.000 A 
ATOM     21  C   UNL     1     -69.082 -44.217 -70.993  0.00  0.00    +0.000 A 
ATOM     22  N   UNL     1     -68.903 -44.723 -69.761  0.00  0.00    +0.000 NA
ATOM     23  O   UNL     1     -69.551 -45.943 -69.735  0.00  0.00    +0.000 OA
ENDBRANCH  17  21
ENDBRANCH  15  17
ENDBRANCH   1  15
BRANCH  13  24
ATOM     24  C   UNL     1     -63.512 -42.096 -70.704  0.00  0.00    +0.000 C 
ATOM     25  O   UNL     1     -63.282 -41.098 -71.385  0.00  0.00    +0.000 OA
BRANCH  24  26
ATOM     26  C   UNL     1     -62.644 -43.342 -70.883  0.00  0.00    +0.000 C 
ATOM     27  C   UNL     1     -63.457 -44.625 -70.731  0.00  0.00    +0.000 C 
ATOM     28  C   UNL     1     -61.906 -43.338 -72.224  0.00  0.00    +0.000 C 
ENDBRANCH  24  26
ENDBRANCH  13  24
TORSDOF 5
ENDMDL
MODEL 19
REMARK VINA RESULT:    -4.842      4.287      6.335
REMARK INTER + INTRA:          -7.495
REMARK INTER:                  -6.283
REMARK INTRA:                  -1.212
REMARK UNBOUND:                -1.238
REMARK  Name = 
REMARK  8 active torsions:
REMARK  status: ('A' for Active; 'I' for Inactive)
REMARK    1  A    between atoms: C_1  and  C_2
REMARK    2  A    between atoms: C_4  and  C_5
REMARK    3  A    between atoms: C_5  and  S_6
REMARK    4  A    between atoms: S_6  and  C_8
REMARK    5  A    between atoms: C_20  and  C_21
REMARK    6  A    between atoms: C_21  and  C_23
REMARK    7  A    between atoms: C_23  and  C_24
REMARK    8  A    between atoms: C_23  and  C_25
REMARK                            x       y       z     vdW  Elec       q    Type
REMARK                         _______ _______ _______ _____ _____    ______ ____
ROOT
ATOM      1  C   UNL     1     -57.852 -39.179 -61.911  0.00  0.00    +0.000 A 
ATOM      2  N   UNL     1     -56.928 -38.593 -62.770  0.00  0.00    +0.000 N 
ATOM      3  C   UNL     1     -56.683 -37.206 -62.757  0.00  0.00    +0.000 A 
ATOM      4  C   UNL     1     -55.503 -36.648 -63.285  0.00  0.00    +0.000 A 
ATOM      5 BR   UNL     1     -54.092 -37.755 -63.902  0.00  0.00    +0.000 Br
ATOM      6  C   UNL     1     -55.321 -35.263 -63.330  0.00  0.00    +0.000 A 
ATOM      7  C   UNL     1     -56.312 -34.416 -62.843  0.00  0.00    +0.000 A 
ATOM      8  C   UNL     1     -57.495 -34.953 -62.305  0.00  0.00    +0.000 A 
ATOM      9 CL   UNL     1     -58.619 -33.807 -61.668  0.00  0.00    +0.000 Cl
ATOM     10  C   UNL     1     -57.683 -36.350 -62.266  0.00  0.00    +0.000 A 
ATOM     11  C   UNL     1     -58.907 -37.014 -61.749  0.00  0.00    +0.000 A 
ATOM     12  O   UNL     1     -59.973 -36.407 -61.727  0.00  0.00    +0.000 OA
ATOM     13  C   UNL     1     -58.806 -38.460 -61.273  0.00  0.00    +0.000 A 
ATOM     14  H   UNL     1     -56.118 -39.192 -62.984  0.00  0.00    +0.000 HD
ENDROOT
BRANCH   1  15
ATOM     15  S   UNL     1     -57.464 -40.945 -61.609  0.00  0.00    +0.000 S 
ATOM     16  O   UNL     1     -56.819 -40.944 -60.250  0.00  0.00    +0.000 OA
BRANCH  15  17
ATOM     17  C   UNL     1     -56.183 -41.311 -62.857  0.00  0.00    +0.000 C 
BRANCH  17  21
ATOM     18  C   UNL     1     -57.881 -43.728 -67.108  0.00  0.00    +0.000 C 
ATOM     19  C   UNL     1     -57.440 -42.861 -65.994  0.00  0.00    +0.000 A 
ATOM     20  C   UNL     1     -57.032 -43.074 -64.697  0.00  0.00    +0.000 A 
ATOM     21  C   UNL     1     -56.719 -41.780 -64.189  0.00  0.00    +0.000 A 
ATOM     22  N   UNL     1     -56.954 -40.852 -65.133  0.00  0.00    +0.000 NA
ATOM     23  O   UNL     1     -57.397 -41.529 -66.253  0.00  0.00    +0.000 OA
ENDBRANCH  17  21
ENDBRANCH  15  17
ENDBRANCH   1  15
BRANCH  13  24
ATOM     24  C   UNL     1     -59.736 -38.874 -60.154  0.00  0.00    +0.000 C 
ATOM     25  O   UNL     1     -60.690 -39.616 -60.384  0.00  0.00    +0.000 OA
BRANCH  24  26
ATOM     26  C   UNL     1     -59.538 -38.321 -58.742  0.00  0.00    +0.000 C 
ATOM     27  C   UNL     1     -60.269 -39.162 -57.697  0.00  0.00    +0.000 C 
ATOM     28  C   UNL     1     -58.056 -38.194 -58.379  0.00  0.00    +0.000 C 
ENDBRANCH  24  26
ENDBRANCH  13  24
TORSDOF 5
ENDMDL
MODEL 20
REMARK VINA RESULT:    -4.782      6.048      8.194
REMARK INTER + INTRA:          -7.418
REMARK INTER:                  -6.585
REMARK INTRA:                  -0.833
REMARK UNBOUND:                -1.238
REMARK  Name = 
REMARK  8 active torsions:
REMARK  status: ('A' for Active; 'I' for Inactive)
REMARK    1  A    between atoms: C_1  and  C_2
REMARK    2  A    between atoms: C_4  and  C_5
REMARK    3  A    between atoms: C_5  and  S_6
REMARK    4  A    between atoms: S_6  and  C_8
REMARK    5  A    between atoms: C_20  and  C_21
REMARK    6  A    between atoms: C_21  and  C_23
REMARK    7  A    between atoms: C_23  and  C_24
REMARK    8  A    between atoms: C_23  and  C_25
REMARK                            x       y       z     vdW  Elec       q    Type
REMARK                         _______ _______ _______ _____ _____    ______ ____
ROOT
ATOM      1  C   UNL     1     -59.669 -42.838 -58.927  0.00  0.00    +0.000 A 
ATOM      2  N   UNL     1     -58.311 -42.618 -58.718  0.00  0.00    +0.000 N 
ATOM      3  C   UNL     1     -57.650 -43.113 -57.576  0.00  0.00    +0.000 A 
ATOM      4  C   UNL     1     -56.253 -43.276 -57.532  0.00  0.00    +0.000 A 
ATOM      5 BR   UNL     1     -55.188 -42.990 -59.075  0.00  0.00    +0.000 Br
ATOM      6  C   UNL     1     -55.614 -43.694 -56.361  0.00  0.00    +0.000 A 
ATOM      7  C   UNL     1     -56.364 -43.961 -55.219  0.00  0.00    +0.000 A 
ATOM      8  C   UNL     1     -57.763 -43.811 -55.244  0.00  0.00    +0.000 A 
ATOM      9 CL   UNL     1     -58.590 -44.239 -53.790  0.00  0.00    +0.000 Cl
ATOM     10  C   UNL     1     -58.406 -43.382 -56.424  0.00  0.00    +0.000 A 
ATOM     11  C   UNL     1     -59.870 -43.162 -56.543  0.00  0.00    +0.000 A 
ATOM     12  O   UNL     1     -60.540 -42.926 -55.542  0.00  0.00    +0.000 OA
ATOM     13  C   UNL     1     -60.505 -43.216 -57.930  0.00  0.00    +0.000 A 
ATOM     14  H   UNL     1     -57.755 -42.586 -59.583  0.00  0.00    +0.000 HD
ENDROOT
BRANCH   1  15
ATOM     15  S   UNL     1     -60.095 -42.765 -60.708  0.00  0.00    +0.000 S 
ATOM     16  O   UNL     1     -60.230 -44.210 -61.105  0.00  0.00    +0.000 OA
BRANCH  15  17
ATOM     17  C   UNL     1     -58.581 -42.094 -61.474  0.00  0.00    +0.000 C 
BRANCH  17  21
ATOM     18  C   UNL     1     -58.171 -43.408 -66.464  0.00  0.00    +0.000 C 
ATOM     19  C   UNL     1     -58.137 -43.171 -65.005  0.00  0.00    +0.000 A 
ATOM     20  C   UNL     1     -58.738 -42.276 -64.149  0.00  0.00    +0.000 A 
ATOM     21  C   UNL     1     -58.278 -42.639 -62.850  0.00  0.00    +0.000 A 
ATOM     22  N   UNL     1     -57.434 -43.681 -62.941  0.00  0.00    +0.000 NA
ATOM     23  O   UNL     1     -57.353 -44.010 -64.281  0.00  0.00    +0.000 OA
ENDBRANCH  17  21
ENDBRANCH  15  17
ENDBRANCH   1  15
BRANCH  13  24
ATOM     24  C   UNL     1     -61.932 -43.710 -58.005  0.00  0.00    +0.000 C 
ATOM     25  O   UNL     1     -62.860 -42.972 -57.677  0.00  0.00    +0.000 OA
BRANCH  24  26
ATOM     26  C   UNL     1     -62.231 -45.149 -58.427  0.00  0.00    +0.000 C 
ATOM     27  C   UNL     1     -60.996 -46.040 -58.313  0.00  0.00    +0.000 C 
ATOM     28  C   UNL     1     -63.393 -45.749 -57.631  0.00  0.00    +0.000 C 
ENDBRANCH  24  26
ENDBRANCH  13  24
TORSDOF 5
ENDMDL
