REMARK VINA RESULT:    -6.012     22.003     25.868
REMARK INTER + INTRA:          -8.687
REMARK INTER:                  -7.870
REMARK INTRA:                  -0.817
REMARK UNBOUND:                -0.917
REMARK  Name = 
REMARK  6 active torsions:
REMARK  status: ('A' for Active; 'I' for Inactive)
REMARK    1  A    between atoms: C_1  and  C_2
REMARK    2  A    between atoms: C_4  and  C_5
REMARK    3  A    between atoms: C_5  and  S_6
REMARK    4  A    between atoms: S_6  and  C_8
REMARK    5  A    between atoms: C_20  and  C_21
REMARK    6  A    between atoms: C_21  and  C_23
REMARK                            x       y       z     vdW  Elec       q    Type
REMARK                         _______ _______ _______ _____ _____    ______ ____
ROOT
ATOM      1  C   UNL     1     -66.625 -49.547 -54.514  0.00  0.00    +0.000 A 
ATOM      2  N   UNL     1     -67.353 -50.471 -55.287  0.00  0.00    +0.000 N 
ATOM      3  C   UNL     1     -67.713 -51.738 -54.750  0.00  0.00    +0.000 A 
ATOM      4  C   UNL     1     -68.742 -52.535 -55.287  0.00  0.00    +0.000 A 
ATOM      5 BR   UNL     1     -69.858 -51.887 -56.677  0.00  0.00    +0.000 Br
ATOM      6  C   UNL     1     -68.991 -53.825 -54.797  0.00  0.00    +0.000 A 
ATOM      7  C   UNL     1     -68.224 -54.322 -53.737  0.00  0.00    +0.000 A 
ATOM      8  C   UNL     1     -67.201 -53.550 -53.187  0.00  0.00    +0.000 A 
ATOM      9 CL   UNL     1     -66.363 -54.225 -51.837  0.00  0.00    +0.000 Cl
ATOM     10  C   UNL     1     -66.938 -52.275 -53.710  0.00  0.00    +0.000 A 
ATOM     11  C   UNL     1     -65.824 -51.422 -53.252  0.00  0.00    +0.000 A 
ATOM     12  O   UNL     1     -64.781 -51.899 -52.825  0.00  0.00    +0.000 OA
ATOM     13  C   UNL     1     -65.970 -49.936 -53.397  0.00  0.00    +0.000 A 
ATOM     14  H   UNL     1     -68.105 -50.021 -55.826  0.00  0.00    +0.000 HD
ENDROOT
BRANCH   1  15
ATOM     15  S   UNL     1     -67.038 -47.828 -54.912  0.00  0.00    +0.000 S 
ATOM     16  O   UNL     1     -68.355 -47.595 -54.223  0.00  0.00    +0.000 OA
BRANCH  15  17
ATOM     17  C   UNL     1     -67.324 -47.671 -56.700  0.00  0.00    +0.000 C 
BRANCH  17  21
ATOM     18  C   UNL     1     -64.087 -47.277 -60.647  0.00  0.00    +0.000 C 
ATOM     19  C   UNL     1     -64.873 -47.283 -59.400  0.00  0.00    +0.000 A 
ATOM     20  C   UNL     1     -66.134 -47.705 -59.053  0.00  0.00    +0.000 A 
ATOM     21  C   UNL     1     -66.209 -47.495 -57.658  0.00  0.00    +0.000 A 
ATOM     22  N   UNL     1     -65.082 -46.915 -57.208  0.00  0.00    +0.000 NA
ATOM     23  O   UNL     1     -64.250 -46.786 -58.301  0.00  0.00    +0.000 OA
ENDBRANCH  17  21
ENDBRANCH  15  17
ENDBRANCH   1  15
BRANCH  13  24
ATOM     24  C   UNL     1     -65.520 -49.170 -52.201  0.00  0.00    +0.000 C 
ATOM     25  O   UNL     1     -66.231 -49.089 -51.213  0.00  0.00    +0.000 OA
BRANCH  24  26
ATOM     26  C   UNL     1     -64.181 -48.552 -52.214  0.00  0.00    +0.000 C 
ATOM     27  C   UNL     1     -63.853 -47.472 -51.216  0.00  0.00    +0.000 C 
ATOM     28  C   UNL     1     -63.981 -47.126 -52.668  0.00  0.00    +0.000 C 
ENDBRANCH  24  26
ENDBRANCH  13  24
TORSDOF 5
