REMARK VINA RESULT:    -5.067     18.344     19.967
REMARK INTER + INTRA:          -7.247
REMARK INTER:                  -6.473
REMARK INTRA:                  -0.774
REMARK UNBOUND:                -0.699
REMARK  Name = 
REMARK  8 active torsions:
REMARK  status: ('A' for Active; 'I' for Inactive)
REMARK    1  A    between atoms: C_1  and  C_2
REMARK    2  A    between atoms: C_4  and  C_5
REMARK    3  A    between atoms: C_5  and  S_6
REMARK    4  A    between atoms: S_6  and  C_8
REMARK    5  A    between atoms: C_20  and  C_21
REMARK    6  A    between atoms: C_21  and  C_23
REMARK    7  A    between atoms: C_23  and  C_24
REMARK    8  A    between atoms: C_23  and  C_25
REMARK                            x       y       z     vdW  Elec       q    Type
REMARK                         _______ _______ _______ _____ _____    ______ ____
ROOT
ATOM      1  C   UNL     1     -47.427 -25.214 -62.752  0.00  0.00    +0.000 A 
ATOM      2  N   UNL     1     -47.312 -26.089 -61.676  0.00  0.00    +0.000 N 
ATOM      3  C   UNL     1     -47.979 -25.854 -60.459  0.00  0.00    +0.000 A 
ATOM      4  C   UNL     1     -48.226 -26.881 -59.529  0.00  0.00    +0.000 A 
ATOM      5 BR   UNL     1     -47.814 -28.687 -59.938  0.00  0.00    +0.000 Br
ATOM      6  C   UNL     1     -48.820 -26.606 -58.294  0.00  0.00    +0.000 A 
ATOM      7  C   UNL     1     -49.182 -25.301 -57.972  0.00  0.00    +0.000 A 
ATOM      8  C   UNL     1     -48.951 -24.261 -58.891  0.00  0.00    +0.000 A 
ATOM      9 CL   UNL     1     -49.507 -22.698 -58.410  0.00  0.00    +0.000 Cl
ATOM     10  C   UNL     1     -48.345 -24.537 -60.134  0.00  0.00    +0.000 A 
ATOM     11  C   UNL     1     -48.029 -23.506 -61.156  0.00  0.00    +0.000 A 
ATOM     12  O   UNL     1     -47.880 -22.335 -60.822  0.00  0.00    +0.000 OA
ATOM     13  C   UNL     1     -47.876 -23.944 -62.610  0.00  0.00    +0.000 A 
ATOM     14  H   UNL     1     -47.206 -27.075 -61.950  0.00  0.00    +0.000 HD
ENDROOT
BRANCH   1  15
ATOM     15  S   UNL     1     -47.112 -26.063 -64.345  0.00  0.00    +0.000 S 
ATOM     16  O   UNL     1     -46.647 -27.435 -63.936  0.00  0.00    +0.000 OA
BRANCH  15  17
ATOM     17  C   UNL     1     -45.688 -25.152 -65.032  0.00  0.00    +0.000 C 
BRANCH  17  21
ATOM     18  C   UNL     1     -44.319 -26.757 -69.759  0.00  0.00    +0.000 C 
ATOM     19  C   UNL     1     -44.808 -26.143 -68.505  0.00  0.00    +0.000 A 
ATOM     20  C   UNL     1     -44.793 -26.500 -67.176  0.00  0.00    +0.000 A 
ATOM     21  C   UNL     1     -45.419 -25.416 -66.495  0.00  0.00    +0.000 A 
ATOM     22  N   UNL     1     -45.800 -24.480 -67.381  0.00  0.00    +0.000 NA
ATOM     23  O   UNL     1     -45.415 -24.935 -68.628  0.00  0.00    +0.000 OA
ENDBRANCH  17  21
ENDBRANCH  15  17
ENDBRANCH   1  15
BRANCH  13  24
ATOM     24  C   UNL     1     -48.275 -22.940 -63.668  0.00  0.00    +0.000 C 
ATOM     25  O   UNL     1     -47.448 -22.142 -64.107  0.00  0.00    +0.000 OA
BRANCH  24  26
ATOM     26  C   UNL     1     -49.723 -22.861 -64.152  0.00  0.00    +0.000 C 
ATOM     27  C   UNL     1     -49.934 -23.657 -65.438  0.00  0.00    +0.000 C 
ATOM     28  C   UNL     1     -50.712 -23.320 -63.076  0.00  0.00    +0.000 C 
ENDBRANCH  24  26
ENDBRANCH  13  24
TORSDOF 5
