=
 OpenBabel09162515363D

 28 31  0  0  1  0  0  0  0  0999 V2000
  -55.5750  -41.3310  -63.5390 C   0  0  2  0  0  3  0  0  0  0  0  0
  -54.2130  -41.0750  -63.7870 N   0  0  0  0  0  0  0  0  0  0  0  0
  -53.2680  -42.1370  -63.7990 C   0  0  0  0  0  0  0  0  0  0  0  0
  -52.0030  -42.0320  -64.4070 C   0  0  0  0  0  0  0  0  0  0  0  0
  -51.5290  -40.5030  -65.4250 Br  0  0  0  0  0  0  0  0  0  0  0  0
  -51.0590  -43.0640  -64.3010 C   0  0  0  0  0  3  0  0  0  0  0  0
  -51.3860  -44.2320  -63.6030 C   0  0  0  0  0  3  0  0  0  0  0  0
  -52.6350  -44.3600  -62.9940 C   0  0  0  0  0  0  0  0  0  0  0  0
  -52.9660  -45.8670  -62.2190 Cl  0  0  0  0  0  0  0  0  0  0  0  0
  -53.5570  -43.3050  -63.0770 C   0  0  0  0  0  0  0  0  0  0  0  0
  -54.8650  -43.3150  -62.3940 C   0  0  0  0  0  0  0  0  0  0  0  0
  -55.0380  -43.9120  -61.3390 O   0  0  0  0  0  0  0  0  0  0  0  0
  -55.9750  -42.4990  -62.9900 C   0  0  2  0  0  3  0  0  0  0  0  0
  -54.0770  -40.3900  -64.5430 H   0  0  0  0  0  0  0  0  0  0  0  0
  -56.6700  -40.1840  -64.4160 S   0  0  2  0  0  0  0  0  0  0  0  0
  -57.4720  -39.5300  -63.3240 O   0  0  0  0  0  0  0  0  0  0  0  0
  -57.8290  -41.1250  -65.4520 C   0  0  0  0  0  2  0  0  0  0  0  0
  -55.6540  -43.2300  -69.5820 C   0  0  0  0  0  1  0  0  0  0  0  0
  -56.3590  -42.8180  -68.3540 C   0  0  0  0  0  0  0  0  0  0  0  0
  -56.4230  -41.6580  -67.6190 C   0  0  0  0  0  3  0  0  0  0  0  0
  -57.3700  -41.9310  -66.6060 C   0  0  0  0  0  0  0  0  0  0  0  0
  -57.7930  -43.2050  -66.6880 N   0  0  0  0  0  0  0  0  0  0  0  0
  -57.1590  -43.7540  -67.7830 O   0  0  0  0  0  0  0  0  0  0  0  0
  -57.2870  -43.2050  -63.0200 C   0  0  0  0  0  0  0  0  0  0  0  0
  -57.4060  -44.2670  -63.6060 O   0  0  0  0  0  0  0  0  0  0  0  0
  -58.4270  -42.6200  -62.2880 C   0  0  0  0  0  3  0  0  0  0  0  0
  -58.3970  -42.5760  -60.7820 C   0  0  0  0  0  2  0  0  0  0  0  0
  -59.3640  -43.4840  -61.4790 C   0  0  0  0  0  2  0  0  0  0  0  0
  1 15  1  6  0  0  0
  1 13  1  0  0  0  0
  2  1  1  0  0  0  0
  3  2  1  0  0  0  0
  3 10  1  0  0  0  0
  4  6  1  0  0  0  0
  4  3  2  0  0  0  0
  5  4  1  0  0  0  0
  6  7  2  0  0  0  0
  7  8  1  0  0  0  0
  8  9  1  0  0  0  0
 10  8  2  0  0  0  0
 10 11  1  0  0  0  0
 11 12  2  0  0  0  0
 13 24  1  6  0  0  0
 13 11  1  0  0  0  0
 14  2  1  0  0  0  0
 15 16  2  1  0  0  0
 17 15  1  0  0  0  0
 18 19  1  0  0  0  0
 19 23  1  0  0  0  0
 19 20  2  0  0  0  0
 20 21  1  0  0  0  0
 21 17  1  0  0  0  0
 22 21  2  0  0  0  0
 23 22  1  0  0  0  0
 24 26  1  0  0  0  0
 25 24  2  0  0  0  0
 26 28  1  0  0  0  0
 26 27  1  0  0  0  0
 28 27  1  0  0  0  0
M  END
>  <MODEL>
1

>  <REMARK>
 VINA RESULT:    -7.654      0.000      0.000
 INTER + INTRA:         -10.527
 INTER:                  -9.891
 INTRA:                  -0.635
 UNBOUND:                -0.635
  Name = 
  6 active torsions:
  status: ('A' for Active; 'I' for Inactive)
    1  A    between atoms: C_1  and  C_2
    2  A    between atoms: C_4  and  C_5
    3  A    between atoms: C_5  and  S_6
    4  A    between atoms: S_6  and  C_8
    5  A    between atoms: C_20  and  C_21
    6  A    between atoms: C_21  and  C_23
                            x       y       z     vdW  Elec       q    Type
                         _______ _______ _______ _____ _____    ______ ____

>  <TORSDO>
F 5

$$$$
