REMARK VINA RESULT:    -6.595      2.837      5.786
REMARK INTER + INTRA:          -9.396
REMARK INTER:                  -8.486
REMARK INTRA:                  -0.910
REMARK UNBOUND:                -0.873
REMARK  Name = 
REMARK  6 active torsions:
REMARK  status: ('A' for Active; 'I' for Inactive)
REMARK    1  A    between atoms: C_1  and  C_2
REMARK    2  A    between atoms: C_4  and  C_5
REMARK    3  A    between atoms: C_5  and  S_6
REMARK    4  A    between atoms: S_6  and  C_8
REMARK    5  A    between atoms: C_20  and  C_21
REMARK    6  A    between atoms: C_21  and  C_23
REMARK                            x       y       z     vdW  Elec       q    Type
REMARK                         _______ _______ _______ _____ _____    ______ ____
ROOT
ATOM      1  C   UNL     1     -54.939 -43.132 -77.649  0.00  0.00    +0.000 A 
ATOM      2  N   UNL     1     -54.913 -43.925 -78.813  0.00  0.00    +0.000 N 
ATOM      3  C   UNL     1     -55.207 -45.314 -78.750  0.00  0.00    +0.000 A 
ATOM      4  C   UNL     1     -55.579 -46.073 -79.875  0.00  0.00    +0.000 A 
ATOM      5 BR   UNL     1     -55.895 -45.245 -81.553  0.00  0.00    +0.000 Br
ATOM      6  C   UNL     1     -55.753 -47.461 -79.789  0.00  0.00    +0.000 A 
ATOM      7  C   UNL     1     -55.581 -48.105 -78.558  0.00  0.00    +0.000 A 
ATOM      8  C   UNL     1     -55.214 -47.374 -77.428  0.00  0.00    +0.000 A 
ATOM      9 CL   UNL     1     -55.097 -48.250 -75.945  0.00  0.00    +0.000 Cl
ATOM     10  C   UNL     1     -55.008 -45.991 -77.536  0.00  0.00    +0.000 A 
ATOM     11  C   UNL     1     -54.536 -45.150 -76.418  0.00  0.00    +0.000 A 
ATOM     12  O   UNL     1     -53.805 -45.594 -75.542  0.00  0.00    +0.000 OA
ATOM     13  C   UNL     1     -54.913 -43.698 -76.422  0.00  0.00    +0.000 A 
ATOM     14  H   UNL     1     -55.340 -43.447 -79.619  0.00  0.00    +0.000 HD
ENDROOT
BRANCH   1  15
ATOM     15  S   UNL     1     -55.451 -41.426 -77.980  0.00  0.00    +0.000 S 
ATOM     16  O   UNL     1     -56.270 -41.523 -79.238  0.00  0.00    +0.000 OA
BRANCH  15  17
ATOM     17  C   UNL     1     -53.988 -40.417 -78.360  0.00  0.00    +0.000 C 
BRANCH  17  21
ATOM     18  C   UNL     1     -49.893 -40.886 -75.323  0.00  0.00    +0.000 C 
ATOM     19  C   UNL     1     -51.047 -40.540 -76.173  0.00  0.00    +0.000 A 
ATOM     20  C   UNL     1     -51.920 -41.258 -76.956  0.00  0.00    +0.000 A 
ATOM     21  C   UNL     1     -52.851 -40.301 -77.418  0.00  0.00    +0.000 A 
ATOM     22  N   UNL     1     -52.513 -39.071 -76.993  0.00  0.00    +0.000 NA
ATOM     23  O   UNL     1     -51.386 -39.227 -76.214  0.00  0.00    +0.000 OA
ENDBRANCH  17  21
ENDBRANCH  15  17
ENDBRANCH   1  15
BRANCH  13  24
ATOM     24  C   UNL     1     -55.356 -43.190 -75.093  0.00  0.00    +0.000 C 
ATOM     25  O   UNL     1     -54.598 -42.542 -74.393  0.00  0.00    +0.000 OA
BRANCH  24  26
ATOM     26  C   UNL     1     -56.743 -43.446 -74.661  0.00  0.00    +0.000 C 
ATOM     27  C   UNL     1     -57.886 -43.023 -75.548  0.00  0.00    +0.000 C 
ATOM     28  C   UNL     1     -57.655 -42.315 -74.247  0.00  0.00    +0.000 C 
ENDBRANCH  24  26
ENDBRANCH  13  24
TORSDOF 5
