REMARK VINA RESULT:    -5.979     20.814     24.729
REMARK INTER + INTRA:          -8.590
REMARK INTER:                  -7.562
REMARK INTRA:                  -1.028
REMARK UNBOUND:                -0.863
REMARK  Name = 
REMARK  6 active torsions:
REMARK  status: ('A' for Active; 'I' for Inactive)
REMARK    1  A    between atoms: C_1  and  C_2
REMARK    2  A    between atoms: C_4  and  C_5
REMARK    3  A    between atoms: C_5  and  S_6
REMARK    4  A    between atoms: S_6  and  C_8
REMARK    5  A    between atoms: C_20  and  C_21
REMARK    6  A    between atoms: C_21  and  C_23
REMARK                            x       y       z     vdW  Elec       q    Type
REMARK                         _______ _______ _______ _____ _____    ______ ____
ROOT
ATOM      1  C   UNL     1     -64.507 -47.410 -54.539  0.00  0.00    +0.000 A 
ATOM      2  N   UNL     1     -65.331 -48.166 -55.396  0.00  0.00    +0.000 N 
ATOM      3  C   UNL     1     -66.151 -49.207 -54.879  0.00  0.00    +0.000 A 
ATOM      4  C   UNL     1     -67.258 -49.728 -55.574  0.00  0.00    +0.000 A 
ATOM      5 BR   UNL     1     -67.853 -48.946 -57.196  0.00  0.00    +0.000 Br
ATOM      6  C   UNL     1     -67.973 -50.828 -55.078  0.00  0.00    +0.000 A 
ATOM      7  C   UNL     1     -67.600 -51.403 -53.858  0.00  0.00    +0.000 A 
ATOM      8  C   UNL     1     -66.506 -50.902 -53.151  0.00  0.00    +0.000 A 
ATOM      9 CL   UNL     1     -66.172 -51.635 -51.623  0.00  0.00    +0.000 Cl
ATOM     10  C   UNL     1     -65.777 -49.824 -53.675  0.00  0.00    +0.000 A 
ATOM     11  C   UNL     1     -64.559 -49.283 -53.043  0.00  0.00    +0.000 A 
ATOM     12  O   UNL     1     -63.805 -49.990 -52.385  0.00  0.00    +0.000 OA
ATOM     13  C   UNL     1     -64.216 -47.845 -53.293  0.00  0.00    +0.000 A 
ATOM     14  H   UNL     1     -65.799 -47.581 -56.102  0.00  0.00    +0.000 HD
ENDROOT
BRANCH   1  15
ATOM     15  S   UNL     1     -64.297 -45.701 -55.104  0.00  0.00    +0.000 S 
ATOM     16  O   UNL     1     -65.370 -44.938 -54.377  0.00  0.00    +0.000 OA
BRANCH  15  17
ATOM     17  C   UNL     1     -64.665 -45.600 -56.880  0.00  0.00    +0.000 C 
BRANCH  17  21
ATOM     18  C   UNL     1     -62.059 -47.124 -61.016  0.00  0.00    +0.000 C 
ATOM     19  C   UNL     1     -62.621 -46.683 -59.725  0.00  0.00    +0.000 A 
ATOM     20  C   UNL     1     -63.868 -46.295 -59.296  0.00  0.00    +0.000 A 
ATOM     21  C   UNL     1     -63.719 -46.096 -57.906  0.00  0.00    +0.000 A 
ATOM     22  N   UNL     1     -62.440 -46.286 -57.537  0.00  0.00    +0.000 NA
ATOM     23  O   UNL     1     -61.758 -46.654 -58.678  0.00  0.00    +0.000 OA
ENDBRANCH  17  21
ENDBRANCH  15  17
ENDBRANCH   1  15
BRANCH  13  24
ATOM     24  C   UNL     1     -63.778 -47.112 -52.071  0.00  0.00    +0.000 C 
ATOM     25  O   UNL     1     -62.651 -46.652 -51.995  0.00  0.00    +0.000 OA
BRANCH  24  26
ATOM     26  C   UNL     1     -64.746 -46.911 -50.976  0.00  0.00    +0.000 C 
ATOM     27  C   UNL     1     -66.201 -46.699 -51.304  0.00  0.00    +0.000 C 
ATOM     28  C   UNL     1     -65.395 -45.568 -50.741  0.00  0.00    +0.000 C 
ENDBRANCH  24  26
ENDBRANCH  13  24
TORSDOF 5
