MODEL 1
REMARK VINA RESULT:    -6.816      0.000      0.000
REMARK INTER + INTRA:          -9.169
REMARK INTER:                  -8.409
REMARK INTRA:                  -0.760
REMARK UNBOUND:                -0.760
REMARK  Name = 
REMARK  6 active torsions:
REMARK  status: ('A' for Active; 'I' for Inactive)
REMARK    1  A    between atoms: C_1  and  C_2
REMARK    2  A    between atoms: C_2  and  C_4
REMARK    3  A    between atoms: C_5  and  S_6
REMARK    4  A    between atoms: S_6  and  C_8
REMARK    5  A    between atoms: C_8  and  C_9
REMARK    6  A    between atoms: C_11  and  C_12
REMARK                            x       y       z     vdW  Elec       q    Type
REMARK                         _______ _______ _______ _____ _____    ______ ____
ROOT
ATOM      1  C   UNL     1     -55.585 -42.534 -62.958  0.00  0.00    +0.000 A 
ATOM      2  C   UNL     1     -55.377 -41.304 -63.487  0.00  0.00    +0.000 A 
ATOM      3  N   UNL     1     -54.185 -40.925 -64.070  0.00  0.00    +0.000 N 
ATOM      4  C   UNL     1     -53.047 -41.746 -64.093  0.00  0.00    +0.000 A 
ATOM      5  C   UNL     1     -51.877 -41.336 -64.760  0.00  0.00    +0.000 A 
ATOM      6 BR   UNL     1     -51.779 -39.641 -65.613  0.00  0.00    +0.000 Br
ATOM      7  C   UNL     1     -50.761 -42.168 -64.830  0.00  0.00    +0.000 A 
ATOM      8  C   UNL     1     -50.800 -43.423 -64.226  0.00  0.00    +0.000 A 
ATOM      9  C   UNL     1     -51.962 -43.861 -63.577  0.00  0.00    +0.000 A 
ATOM     10 CL   UNL     1     -51.854 -45.436 -62.871  0.00  0.00    +0.000 Cl
ATOM     11  C   UNL     1     -53.102 -43.036 -63.538  0.00  0.00    +0.000 A 
ATOM     12  C   UNL     1     -54.388 -43.449 -62.917  0.00  0.00    +0.000 A 
ATOM     13  O   UNL     1     -54.475 -44.522 -62.333  0.00  0.00    +0.000 OA
ATOM     14  H   UNL     1     -54.014 -39.921 -64.127  0.00  0.00    +0.000 HD
ENDROOT
BRANCH   1  16
ATOM     15  C   UNL     1     -57.833 -43.778 -63.299  0.00  0.00    +0.000 C 
ATOM     16  C   UNL     1     -56.892 -43.017 -62.392  0.00  0.00    +0.000 C 
ATOM     17  O   UNL     1     -57.226 -42.780 -61.229  0.00  0.00    +0.000 OA
ENDBRANCH   1  16
BRANCH   2  18
ATOM     18  S   UNL     1     -56.635 -39.991 -63.346  0.00  0.00    +0.000 S 
ATOM     19  O   UNL     1     -56.434 -39.463 -61.951  0.00  0.00    +0.000 OA
BRANCH  18  20
ATOM     20  C   UNL     1     -55.888 -38.753 -64.466  0.00  0.00    +0.000 C 
BRANCH  20  21
ATOM     21  C   UNL     1     -55.357 -37.578 -63.718  0.00  0.00    +0.000 A 
ATOM     22  C   UNL     1     -54.175 -37.474 -62.942  0.00  0.00    +0.000 A 
ATOM     23  C   UNL     1     -54.124 -36.155 -62.562  0.00  0.00    +0.000 A 
ATOM     24  C   UNL     1     -53.182 -35.342 -61.771  0.00  0.00    +0.000 C 
ATOM     25  O   UNL     1     -55.206 -35.506 -63.071  0.00  0.00    +0.000 OA
ATOM     26  N   UNL     1     -55.978 -36.393 -63.800  0.00  0.00    +0.000 NA
ENDBRANCH  20  21
ENDBRANCH  18  20
ENDBRANCH   2  18
TORSDOF 4
ENDMDL
MODEL 2
REMARK VINA RESULT:    -6.563     12.718     13.786
REMARK INTER + INTRA:          -8.857
REMARK INTER:                  -8.199
REMARK INTRA:                  -0.658
REMARK UNBOUND:                -0.760
REMARK  Name = 
REMARK  6 active torsions:
REMARK  status: ('A' for Active; 'I' for Inactive)
REMARK    1  A    between atoms: C_1  and  C_2
REMARK    2  A    between atoms: C_2  and  C_4
REMARK    3  A    between atoms: C_5  and  S_6
REMARK    4  A    between atoms: S_6  and  C_8
REMARK    5  A    between atoms: C_8  and  C_9
REMARK    6  A    between atoms: C_11  and  C_12
REMARK                            x       y       z     vdW  Elec       q    Type
REMARK                         _______ _______ _______ _____ _____    ______ ____
ROOT
ATOM      1  C   UNL     1     -56.259 -41.459 -77.720  0.00  0.00    +0.000 A 
ATOM      2  C   UNL     1     -56.030 -42.657 -77.129  0.00  0.00    +0.000 A 
ATOM      3  N   UNL     1     -54.850 -42.967 -76.485  0.00  0.00    +0.000 N 
ATOM      4  C   UNL     1     -53.743 -42.105 -76.454  0.00  0.00    +0.000 A 
ATOM      5  C   UNL     1     -52.587 -42.442 -75.725  0.00  0.00    +0.000 A 
ATOM      6 BR   UNL     1     -52.465 -44.095 -74.795  0.00  0.00    +0.000 Br
ATOM      7  C   UNL     1     -51.505 -41.568 -75.650  0.00  0.00    +0.000 A 
ATOM      8  C   UNL     1     -51.563 -40.343 -76.310  0.00  0.00    +0.000 A 
ATOM      9  C   UNL     1     -52.713 -39.976 -77.021  0.00  0.00    +0.000 A 
ATOM     10 CL   UNL     1     -52.631 -38.430 -77.792  0.00  0.00    +0.000 Cl
ATOM     11  C   UNL     1     -53.820 -40.843 -77.068  0.00  0.00    +0.000 A 
ATOM     12  C   UNL     1     -55.095 -40.504 -77.755  0.00  0.00    +0.000 A 
ATOM     13  O   UNL     1     -55.195 -39.461 -78.389  0.00  0.00    +0.000 OA
ATOM     14  H   UNL     1     -54.647 -43.961 -76.377  0.00  0.00    +0.000 HD
ENDROOT
BRANCH   1  16
ATOM     15  C   UNL     1     -58.488 -40.142 -77.580  0.00  0.00    +0.000 C 
ATOM     16  C   UNL     1     -57.559 -41.048 -78.356  0.00  0.00    +0.000 C 
ATOM     17  O   UNL     1     -57.897 -41.457 -79.469  0.00  0.00    +0.000 OA
ENDBRANCH   1  16
BRANCH   2  18
ATOM     18  S   UNL     1     -57.235 -44.020 -77.260  0.00  0.00    +0.000 S 
ATOM     19  O   UNL     1     -56.531 -45.174 -76.601  0.00  0.00    +0.000 OA
BRANCH  18  20
ATOM     20  C   UNL     1     -58.474 -43.428 -76.051  0.00  0.00    +0.000 C 
BRANCH  20  21
ATOM     21  C   UNL     1     -57.832 -42.786 -74.869  0.00  0.00    +0.000 A 
ATOM     22  C   UNL     1     -58.010 -41.475 -74.360  0.00  0.00    +0.000 A 
ATOM     23  C   UNL     1     -57.256 -41.444 -73.212  0.00  0.00    +0.000 A 
ATOM     24  C   UNL     1     -56.988 -40.427 -72.178  0.00  0.00    +0.000 C 
ATOM     25  O   UNL     1     -56.659 -42.654 -73.042  0.00  0.00    +0.000 OA
ATOM     26  N   UNL     1     -57.021 -43.500 -74.075  0.00  0.00    +0.000 NA
ENDBRANCH  20  21
ENDBRANCH  18  20
ENDBRANCH   2  18
TORSDOF 4
ENDMDL
MODEL 3
REMARK VINA RESULT:    -6.520      3.327      6.581
REMARK INTER + INTRA:          -8.804
REMARK INTER:                  -8.161
REMARK INTRA:                  -0.643
REMARK UNBOUND:                -0.760
REMARK  Name = 
REMARK  6 active torsions:
REMARK  status: ('A' for Active; 'I' for Inactive)
REMARK    1  A    between atoms: C_1  and  C_2
REMARK    2  A    between atoms: C_2  and  C_4
REMARK    3  A    between atoms: C_5  and  S_6
REMARK    4  A    between atoms: S_6  and  C_8
REMARK    5  A    between atoms: C_8  and  C_9
REMARK    6  A    between atoms: C_11  and  C_12
REMARK                            x       y       z     vdW  Elec       q    Type
REMARK                         _______ _______ _______ _____ _____    ______ ____
ROOT
ATOM      1  C   UNL     1     -55.877 -40.979 -63.957  0.00  0.00    +0.000 A 
ATOM      2  C   UNL     1     -54.749 -40.234 -64.058  0.00  0.00    +0.000 A 
ATOM      3  N   UNL     1     -54.643 -38.952 -63.559  0.00  0.00    +0.000 N 
ATOM      4  C   UNL     1     -55.718 -38.266 -62.975  0.00  0.00    +0.000 A 
ATOM      5  C   UNL     1     -55.539 -36.984 -62.420  0.00  0.00    +0.000 A 
ATOM      6 BR   UNL     1     -53.848 -36.120 -62.482  0.00  0.00    +0.000 Br
ATOM      7  C   UNL     1     -56.590 -36.319 -61.793  0.00  0.00    +0.000 A 
ATOM      8  C   UNL     1     -57.841 -36.926 -61.719  0.00  0.00    +0.000 A 
ATOM      9  C   UNL     1     -58.037 -38.211 -62.242  0.00  0.00    +0.000 A 
ATOM     10 CL   UNL     1     -59.645 -38.828 -62.081  0.00  0.00    +0.000 Cl
ATOM     11  C   UNL     1     -56.967 -38.899 -62.843  0.00  0.00    +0.000 A 
ATOM     12  C   UNL     1     -57.079 -40.283 -63.374  0.00  0.00    +0.000 A 
ATOM     13  O   UNL     1     -58.162 -40.856 -63.376  0.00  0.00    +0.000 OA
ATOM     14  H   UNL     1     -53.910 -38.372 -63.966  0.00  0.00    +0.000 HD
ENDROOT
BRANCH   1  16
ATOM     15  C   UNL     1     -56.631 -42.682 -65.759  0.00  0.00    +0.000 C 
ATOM     16  C   UNL     1     -56.008 -42.407 -64.409  0.00  0.00    +0.000 C 
ATOM     17  O   UNL     1     -55.657 -43.351 -63.697  0.00  0.00    +0.000 OA
ENDBRANCH   1  16
BRANCH   2  18
ATOM     18  S   UNL     1     -53.305 -40.832 -65.000  0.00  0.00    +0.000 S 
ATOM     19  O   UNL     1     -52.643 -39.565 -65.467  0.00  0.00    +0.000 OA
BRANCH  18  20
ATOM     20  C   UNL     1     -52.289 -41.449 -63.610  0.00  0.00    +0.000 C 
BRANCH  20  21
ATOM     21  C   UNL     1     -51.621 -42.740 -63.941  0.00  0.00    +0.000 A 
ATOM     22  C   UNL     1     -50.376 -42.962 -64.581  0.00  0.00    +0.000 A 
ATOM     23  C   UNL     1     -50.206 -44.325 -64.546  0.00  0.00    +0.000 A 
ATOM     24  C   UNL     1     -49.151 -45.247 -65.003  0.00  0.00    +0.000 C 
ATOM     25  O   UNL     1     -51.280 -44.889 -63.932  0.00  0.00    +0.000 OA
ATOM     26  N   UNL     1     -52.167 -43.900 -63.546  0.00  0.00    +0.000 NA
ENDBRANCH  20  21
ENDBRANCH  18  20
ENDBRANCH   2  18
TORSDOF 4
ENDMDL
MODEL 4
REMARK VINA RESULT:    -6.380      4.383      6.818
REMARK INTER + INTRA:          -8.632
REMARK INTER:                  -7.968
REMARK INTRA:                  -0.664
REMARK UNBOUND:                -0.760
REMARK  Name = 
REMARK  6 active torsions:
REMARK  status: ('A' for Active; 'I' for Inactive)
REMARK    1  A    between atoms: C_1  and  C_2
REMARK    2  A    between atoms: C_2  and  C_4
REMARK    3  A    between atoms: C_5  and  S_6
REMARK    4  A    between atoms: S_6  and  C_8
REMARK    5  A    between atoms: C_8  and  C_9
REMARK    6  A    between atoms: C_11  and  C_12
REMARK                            x       y       z     vdW  Elec       q    Type
REMARK                         _______ _______ _______ _____ _____    ______ ____
ROOT
ATOM      1  C   UNL     1     -57.006 -42.014 -64.183  0.00  0.00    +0.000 A 
ATOM      2  C   UNL     1     -55.847 -42.231 -63.516  0.00  0.00    +0.000 A 
ATOM      3  N   UNL     1     -55.780 -42.377 -62.145  0.00  0.00    +0.000 N 
ATOM      4  C   UNL     1     -56.893 -42.230 -61.303  0.00  0.00    +0.000 A 
ATOM      5  C   UNL     1     -56.783 -42.457 -59.918  0.00  0.00    +0.000 A 
ATOM      6 BR   UNL     1     -55.118 -42.925 -59.133  0.00  0.00    +0.000 Br
ATOM      7  C   UNL     1     -57.896 -42.362 -59.084  0.00  0.00    +0.000 A 
ATOM      8  C   UNL     1     -59.135 -42.032 -59.626  0.00  0.00    +0.000 A 
ATOM      9  C   UNL     1     -59.273 -41.826 -61.006  0.00  0.00    +0.000 A 
ATOM     10 CL   UNL     1     -60.871 -41.416 -61.527  0.00  0.00    +0.000 Cl
ATOM     11  C   UNL     1     -58.158 -41.957 -61.853  0.00  0.00    +0.000 A 
ATOM     12  C   UNL     1     -58.232 -41.807 -63.331  0.00  0.00    +0.000 A 
ATOM     13  O   UNL     1     -59.283 -41.477 -63.865  0.00  0.00    +0.000 OA
ATOM     14  H   UNL     1     -54.870 -42.200 -61.720  0.00  0.00    +0.000 HD
ENDROOT
BRANCH   1  16
ATOM     15  C   UNL     1     -57.386 -43.211 -66.450  0.00  0.00    +0.000 C 
ATOM     16  C   UNL     1     -57.136 -41.935 -65.679  0.00  0.00    +0.000 C 
ATOM     17  O   UNL     1     -57.010 -40.870 -66.288  0.00  0.00    +0.000 OA
ENDBRANCH   1  16
BRANCH   2  18
ATOM     18  S   UNL     1     -54.242 -42.211 -64.383  0.00  0.00    +0.000 S 
ATOM     19  O   UNL     1     -53.830 -40.764 -64.322  0.00  0.00    +0.000 OA
BRANCH  18  20
ATOM     20  C   UNL     1     -53.227 -43.076 -63.131  0.00  0.00    +0.000 C 
BRANCH  20  21
ATOM     21  C   UNL     1     -51.915 -43.514 -63.688  0.00  0.00    +0.000 A 
ATOM     22  C   UNL     1     -51.405 -44.828 -63.842  0.00  0.00    +0.000 A 
ATOM     23  C   UNL     1     -50.204 -44.660 -64.487  0.00  0.00    +0.000 A 
ATOM     24  C   UNL     1     -49.157 -45.575 -64.976  0.00  0.00    +0.000 C 
ATOM     25  O   UNL     1     -49.999 -43.333 -64.702  0.00  0.00    +0.000 OA
ATOM     26  N   UNL     1     -51.071 -42.611 -64.208  0.00  0.00    +0.000 NA
ENDBRANCH  20  21
ENDBRANCH  18  20
ENDBRANCH   2  18
TORSDOF 4
ENDMDL
MODEL 5
REMARK VINA RESULT:    -6.212     14.888     15.911
REMARK INTER + INTRA:          -8.424
REMARK INTER:                  -7.724
REMARK INTRA:                  -0.700
REMARK UNBOUND:                -0.760
REMARK  Name = 
REMARK  6 active torsions:
REMARK  status: ('A' for Active; 'I' for Inactive)
REMARK    1  A    between atoms: C_1  and  C_2
REMARK    2  A    between atoms: C_2  and  C_4
REMARK    3  A    between atoms: C_5  and  S_6
REMARK    4  A    between atoms: S_6  and  C_8
REMARK    5  A    between atoms: C_8  and  C_9
REMARK    6  A    between atoms: C_11  and  C_12
REMARK                            x       y       z     vdW  Elec       q    Type
REMARK                         _______ _______ _______ _____ _____    ______ ____
ROOT
ATOM      1  C   UNL     1     -53.578 -42.642 -80.241  0.00  0.00    +0.000 A 
ATOM      2  C   UNL     1     -53.730 -42.037 -79.037  0.00  0.00    +0.000 A 
ATOM      3  N   UNL     1     -54.489 -42.569 -78.016  0.00  0.00    +0.000 N 
ATOM      4  C   UNL     1     -55.245 -43.743 -78.153  0.00  0.00    +0.000 A 
ATOM      5  C   UNL     1     -55.948 -44.279 -77.058  0.00  0.00    +0.000 A 
ATOM      6 BR   UNL     1     -55.937 -43.410 -75.368  0.00  0.00    +0.000 Br
ATOM      7  C   UNL     1     -56.659 -45.472 -77.175  0.00  0.00    +0.000 A 
ATOM      8  C   UNL     1     -56.681 -46.142 -78.395  0.00  0.00    +0.000 A 
ATOM      9  C   UNL     1     -55.969 -45.640 -79.492  0.00  0.00    +0.000 A 
ATOM     10 CL   UNL     1     -56.098 -46.580 -80.939  0.00  0.00    +0.000 Cl
ATOM     11  C   UNL     1     -55.221 -44.455 -79.365  0.00  0.00    +0.000 A 
ATOM     12  C   UNL     1     -54.396 -43.887 -80.464  0.00  0.00    +0.000 A 
ATOM     13  O   UNL     1     -54.406 -44.406 -81.573  0.00  0.00    +0.000 OA
ATOM     14  H   UNL     1     -54.810 -41.910 -77.306  0.00  0.00    +0.000 HD
ENDROOT
BRANCH   1  16
ATOM     15  C   UNL     1     -53.289 -41.218 -82.387  0.00  0.00    +0.000 C 
ATOM     16  C   UNL     1     -52.693 -42.142 -81.349  0.00  0.00    +0.000 C 
ATOM     17  O   UNL     1     -51.515 -42.492 -81.451  0.00  0.00    +0.000 OA
ENDBRANCH   1  16
BRANCH   2  18
ATOM     18  S   UNL     1     -53.039 -40.378 -78.722  0.00  0.00    +0.000 S 
ATOM     19  O   UNL     1     -54.144 -39.452 -79.151  0.00  0.00    +0.000 OA
BRANCH  18  20
ATOM     20  C   UNL     1     -53.076 -40.393 -76.893  0.00  0.00    +0.000 C 
BRANCH  20  21
ATOM     21  C   UNL     1     -51.727 -40.151 -76.309  0.00  0.00    +0.000 A 
ATOM     22  C   UNL     1     -51.094 -38.919 -76.005  0.00  0.00    +0.000 A 
ATOM     23  C   UNL     1     -49.911 -39.276 -75.404  0.00  0.00    +0.000 A 
ATOM     24  C   UNL     1     -48.780 -38.529 -74.824  0.00  0.00    +0.000 C 
ATOM     25  O   UNL     1     -49.832 -40.633 -75.354  0.00  0.00    +0.000 OA
ATOM     26  N   UNL     1     -50.970 -41.185 -75.915  0.00  0.00    +0.000 NA
ENDBRANCH  20  21
ENDBRANCH  18  20
ENDBRANCH   2  18
TORSDOF 4
ENDMDL
MODEL 6
REMARK VINA RESULT:    -6.016     15.062     16.060
REMARK INTER + INTRA:          -8.183
REMARK INTER:                  -7.319
REMARK INTRA:                  -0.864
REMARK UNBOUND:                -0.760
REMARK  Name = 
REMARK  6 active torsions:
REMARK  status: ('A' for Active; 'I' for Inactive)
REMARK    1  A    between atoms: C_1  and  C_2
REMARK    2  A    between atoms: C_2  and  C_4
REMARK    3  A    between atoms: C_5  and  S_6
REMARK    4  A    between atoms: S_6  and  C_8
REMARK    5  A    between atoms: C_8  and  C_9
REMARK    6  A    between atoms: C_11  and  C_12
REMARK                            x       y       z     vdW  Elec       q    Type
REMARK                         _______ _______ _______ _____ _____    ______ ____
ROOT
ATOM      1  C   UNL     1     -55.341 -44.205 -78.188  0.00  0.00    +0.000 A 
ATOM      2  C   UNL     1     -55.628 -43.077 -78.884  0.00  0.00    +0.000 A 
ATOM      3  N   UNL     1     -54.953 -41.888 -78.704  0.00  0.00    +0.000 N 
ATOM      4  C   UNL     1     -53.963 -41.707 -77.725  0.00  0.00    +0.000 A 
ATOM      5  C   UNL     1     -53.257 -40.493 -77.629  0.00  0.00    +0.000 A 
ATOM      6 BR   UNL     1     -53.649 -39.040 -78.789  0.00  0.00    +0.000 Br
ATOM      7  C   UNL     1     -52.239 -40.326 -76.693  0.00  0.00    +0.000 A 
ATOM      8  C   UNL     1     -51.916 -41.373 -75.834  0.00  0.00    +0.000 A 
ATOM      9  C   UNL     1     -52.589 -42.599 -75.927  0.00  0.00    +0.000 A 
ATOM     10 CL   UNL     1     -52.081 -43.798 -74.789  0.00  0.00    +0.000 Cl
ATOM     11  C   UNL     1     -53.592 -42.781 -76.897  0.00  0.00    +0.000 A 
ATOM     12  C   UNL     1     -54.314 -44.066 -77.095  0.00  0.00    +0.000 A 
ATOM     13  O   UNL     1     -54.106 -45.011 -76.345  0.00  0.00    +0.000 OA
ATOM     14  H   UNL     1     -55.442 -41.045 -79.007  0.00  0.00    +0.000 HD
ENDROOT
BRANCH   1  16
ATOM     15  C   UNL     1     -55.384 -46.479 -79.432  0.00  0.00    +0.000 C 
ATOM     16  C   UNL     1     -55.991 -45.542 -78.412  0.00  0.00    +0.000 C 
ATOM     17  O   UNL     1     -57.018 -45.875 -77.816  0.00  0.00    +0.000 OA
ENDBRANCH   1  16
BRANCH   2  18
ATOM     18  S   UNL     1     -57.043 -43.012 -80.032  0.00  0.00    +0.000 S 
ATOM     19  O   UNL     1     -57.437 -41.559 -80.019  0.00  0.00    +0.000 OA
BRANCH  18  20
ATOM     20  C   UNL     1     -56.151 -43.278 -81.606  0.00  0.00    +0.000 C 
BRANCH  20  21
ATOM     21  C   UNL     1     -54.728 -42.843 -81.517  0.00  0.00    +0.000 A 
ATOM     22  C   UNL     1     -53.553 -43.637 -81.495  0.00  0.00    +0.000 A 
ATOM     23  C   UNL     1     -52.522 -42.729 -81.500  0.00  0.00    +0.000 A 
ATOM     24  C   UNL     1     -51.051 -42.835 -81.503  0.00  0.00    +0.000 C 
ATOM     25  O   UNL     1     -53.039 -41.472 -81.519  0.00  0.00    +0.000 OA
ATOM     26  N   UNL     1     -54.421 -41.538 -81.535  0.00  0.00    +0.000 NA
ENDBRANCH  20  21
ENDBRANCH  18  20
ENDBRANCH   2  18
TORSDOF 4
ENDMDL
MODEL 7
REMARK VINA RESULT:    -6.000      3.912      6.815
REMARK INTER + INTRA:          -8.162
REMARK INTER:                  -7.140
REMARK INTRA:                  -1.022
REMARK UNBOUND:                -0.760
REMARK  Name = 
REMARK  6 active torsions:
REMARK  status: ('A' for Active; 'I' for Inactive)
REMARK    1  A    between atoms: C_1  and  C_2
REMARK    2  A    between atoms: C_2  and  C_4
REMARK    3  A    between atoms: C_5  and  S_6
REMARK    4  A    between atoms: S_6  and  C_8
REMARK    5  A    between atoms: C_8  and  C_9
REMARK    6  A    between atoms: C_11  and  C_12
REMARK                            x       y       z     vdW  Elec       q    Type
REMARK                         _______ _______ _______ _____ _____    ______ ____
ROOT
ATOM      1  C   UNL     1     -55.172 -40.497 -63.748  0.00  0.00    +0.000 A 
ATOM      2  C   UNL     1     -55.928 -41.114 -62.808  0.00  0.00    +0.000 A 
ATOM      3  N   UNL     1     -56.801 -40.440 -61.979  0.00  0.00    +0.000 N 
ATOM      4  C   UNL     1     -56.927 -39.043 -61.972  0.00  0.00    +0.000 A 
ATOM      5  C   UNL     1     -57.883 -38.410 -61.154  0.00  0.00    +0.000 A 
ATOM      6 BR   UNL     1     -59.004 -39.419 -59.999  0.00  0.00    +0.000 Br
ATOM      7  C   UNL     1     -58.047 -37.027 -61.180  0.00  0.00    +0.000 A 
ATOM      8  C   UNL     1     -57.251 -36.255 -62.022  0.00  0.00    +0.000 A 
ATOM      9  C   UNL     1     -56.310 -36.865 -62.863  0.00  0.00    +0.000 A 
ATOM     10 CL   UNL     1     -55.394 -35.776 -63.845  0.00  0.00    +0.000 Cl
ATOM     11  C   UNL     1     -56.169 -38.265 -62.864  0.00  0.00    +0.000 A 
ATOM     12  C   UNL     1     -55.233 -38.991 -63.763  0.00  0.00    +0.000 A 
ATOM     13  O   UNL     1     -54.476 -38.369 -64.497  0.00  0.00    +0.000 OA
ATOM     14  H   UNL     1     -57.057 -40.918 -61.115  0.00  0.00    +0.000 HD
ENDROOT
BRANCH   1  16
ATOM     15  C   UNL     1     -52.836 -41.457 -64.332  0.00  0.00    +0.000 C 
ATOM     16  C   UNL     1     -54.273 -41.200 -64.727  0.00  0.00    +0.000 C 
ATOM     17  O   UNL     1     -54.667 -41.537 -65.846  0.00  0.00    +0.000 OA
ENDBRANCH   1  16
BRANCH   2  18
ATOM     18  S   UNL     1     -55.743 -42.897 -62.470  0.00  0.00    +0.000 S 
ATOM     19  O   UNL     1     -55.517 -42.951 -60.984  0.00  0.00    +0.000 OA
BRANCH  18  20
ATOM     20  C   UNL     1     -57.474 -43.423 -62.736  0.00  0.00    +0.000 C 
BRANCH  20  21
ATOM     21  C   UNL     1     -58.008 -42.937 -64.041  0.00  0.00    +0.000 A 
ATOM     22  C   UNL     1     -57.727 -43.406 -65.349  0.00  0.00    +0.000 A 
ATOM     23  C   UNL     1     -58.554 -42.672 -66.165  0.00  0.00    +0.000 A 
ATOM     24  C   UNL     1     -58.807 -42.637 -67.617  0.00  0.00    +0.000 C 
ATOM     25  O   UNL     1     -59.281 -41.814 -65.401  0.00  0.00    +0.000 OA
ATOM     26  N   UNL     1     -58.946 -41.980 -64.069  0.00  0.00    +0.000 NA
ENDBRANCH  20  21
ENDBRANCH  18  20
ENDBRANCH   2  18
TORSDOF 4
ENDMDL
MODEL 8
REMARK VINA RESULT:    -5.953     14.366     15.164
REMARK INTER + INTRA:          -8.105
REMARK INTER:                  -7.290
REMARK INTRA:                  -0.815
REMARK UNBOUND:                -0.760
REMARK  Name = 
REMARK  6 active torsions:
REMARK  status: ('A' for Active; 'I' for Inactive)
REMARK    1  A    between atoms: C_1  and  C_2
REMARK    2  A    between atoms: C_2  and  C_4
REMARK    3  A    between atoms: C_5  and  S_6
REMARK    4  A    between atoms: S_6  and  C_8
REMARK    5  A    between atoms: C_8  and  C_9
REMARK    6  A    between atoms: C_11  and  C_12
REMARK                            x       y       z     vdW  Elec       q    Type
REMARK                         _______ _______ _______ _____ _____    ______ ____
ROOT
ATOM      1  C   UNL     1     -57.112 -43.448 -78.047  0.00  0.00    +0.000 A 
ATOM      2  C   UNL     1     -56.178 -42.688 -77.425  0.00  0.00    +0.000 A 
ATOM      3  N   UNL     1     -55.167 -43.218 -76.650  0.00  0.00    +0.000 N 
ATOM      4  C   UNL     1     -55.059 -44.587 -76.361  0.00  0.00    +0.000 A 
ATOM      5  C   UNL     1     -53.970 -45.083 -75.620  0.00  0.00    +0.000 A 
ATOM      6 BR   UNL     1     -52.631 -43.915 -74.948  0.00  0.00    +0.000 Br
ATOM      7  C   UNL     1     -53.831 -46.447 -75.373  0.00  0.00    +0.000 A 
ATOM      8  C   UNL     1     -54.787 -47.335 -75.860  0.00  0.00    +0.000 A 
ATOM      9  C   UNL     1     -55.867 -46.867 -76.620  0.00  0.00    +0.000 A 
ATOM     10 CL   UNL     1     -56.973 -48.087 -77.148  0.00  0.00    +0.000 Cl
ATOM     11  C   UNL     1     -55.989 -45.493 -76.901  0.00  0.00    +0.000 A 
ATOM     12  C   UNL     1     -57.074 -44.924 -77.743  0.00  0.00    +0.000 A 
ATOM     13  O   UNL     1     -57.968 -45.645 -78.167  0.00  0.00    +0.000 OA
ATOM     14  H   UNL     1     -54.740 -42.583 -75.975  0.00  0.00    +0.000 HD
ENDROOT
BRANCH   1  16
ATOM     15  C   UNL     1     -59.513 -42.530 -78.378  0.00  0.00    +0.000 C 
ATOM     16  C   UNL     1     -58.176 -42.921 -78.968  0.00  0.00    +0.000 C 
ATOM     17  O   UNL     1     -58.000 -42.833 -80.186  0.00  0.00    +0.000 OA
ENDBRANCH   1  16
BRANCH   2  18
ATOM     18  S   UNL     1     -56.270 -40.867 -77.458  0.00  0.00    +0.000 S 
ATOM     19  O   UNL     1     -56.853 -40.522 -76.114  0.00  0.00    +0.000 OA
BRANCH  18  20
ATOM     20  C   UNL     1     -54.485 -40.485 -77.346  0.00  0.00    +0.000 C 
BRANCH  20  21
ATOM     21  C   UNL     1     -53.751 -40.894 -78.577  0.00  0.00    +0.000 A 
ATOM     22  C   UNL     1     -52.620 -41.740 -78.702  0.00  0.00    +0.000 A 
ATOM     23  C   UNL     1     -52.418 -41.851 -80.056  0.00  0.00    +0.000 A 
ATOM     24  C   UNL     1     -51.450 -42.573 -80.901  0.00  0.00    +0.000 C 
ATOM     25  O   UNL     1     -53.361 -41.116 -80.706  0.00  0.00    +0.000 OA
ATOM     26  N   UNL     1     -54.202 -40.520 -79.783  0.00  0.00    +0.000 NA
ENDBRANCH  20  21
ENDBRANCH  18  20
ENDBRANCH   2  18
TORSDOF 4
ENDMDL
MODEL 9
REMARK VINA RESULT:    -5.888     15.656     16.562
REMARK INTER + INTRA:          -8.025
REMARK INTER:                  -7.243
REMARK INTRA:                  -0.781
REMARK UNBOUND:                -0.760
REMARK  Name = 
REMARK  6 active torsions:
REMARK  status: ('A' for Active; 'I' for Inactive)
REMARK    1  A    between atoms: C_1  and  C_2
REMARK    2  A    between atoms: C_2  and  C_4
REMARK    3  A    between atoms: C_5  and  S_6
REMARK    4  A    between atoms: S_6  and  C_8
REMARK    5  A    between atoms: C_8  and  C_9
REMARK    6  A    between atoms: C_11  and  C_12
REMARK                            x       y       z     vdW  Elec       q    Type
REMARK                         _______ _______ _______ _____ _____    ______ ____
ROOT
ATOM      1  C   UNL     1     -55.165 -42.714 -78.911  0.00  0.00    +0.000 A 
ATOM      2  C   UNL     1     -54.286 -41.689 -78.789  0.00  0.00    +0.000 A 
ATOM      3  N   UNL     1     -53.318 -41.638 -77.808  0.00  0.00    +0.000 N 
ATOM      4  C   UNL     1     -53.205 -42.598 -76.790  0.00  0.00    +0.000 A 
ATOM      5  C   UNL     1     -52.156 -42.534 -75.853  0.00  0.00    +0.000 A 
ATOM      6 BR   UNL     1     -50.884 -41.124 -75.903  0.00  0.00    +0.000 Br
ATOM      7  C   UNL     1     -52.009 -43.513 -74.872  0.00  0.00    +0.000 A 
ATOM      8  C   UNL     1     -52.916 -44.568 -74.812  0.00  0.00    +0.000 A 
ATOM      9  C   UNL     1     -53.953 -44.665 -75.749  0.00  0.00    +0.000 A 
ATOM     10 CL   UNL     1     -55.000 -46.026 -75.541  0.00  0.00    +0.000 Cl
ATOM     11  C   UNL     1     -54.081 -43.697 -76.763  0.00  0.00    +0.000 A 
ATOM     12  C   UNL     1     -55.120 -43.758 -77.825  0.00  0.00    +0.000 A 
ATOM     13  O   UNL     1     -55.972 -44.637 -77.803  0.00  0.00    +0.000 OA
ATOM     14  H   UNL     1     -52.947 -40.712 -77.593  0.00  0.00    +0.000 HD
ENDROOT
BRANCH   1  16
ATOM     15  C   UNL     1     -57.537 -42.218 -79.828  0.00  0.00    +0.000 C 
ATOM     16  C   UNL     1     -56.177 -42.853 -80.013  0.00  0.00    +0.000 C 
ATOM     17  O   UNL     1     -55.940 -43.495 -81.039  0.00  0.00    +0.000 OA
ENDBRANCH   1  16
BRANCH   2  18
ATOM     18  S   UNL     1     -54.409 -40.211 -79.850  0.00  0.00    +0.000 S 
ATOM     19  O   UNL     1     -53.453 -39.241 -79.210  0.00  0.00    +0.000 OA
BRANCH  18  20
ATOM     20  C   UNL     1     -53.558 -40.851 -81.337  0.00  0.00    +0.000 C 
BRANCH  20  21
ATOM     21  C   UNL     1     -54.391 -40.695 -82.564  0.00  0.00    +0.000 A 
ATOM     22  C   UNL     1     -55.633 -40.029 -82.720  0.00  0.00    +0.000 A 
ATOM     23  C   UNL     1     -55.904 -40.112 -84.064  0.00  0.00    +0.000 A 
ATOM     24  C   UNL     1     -56.997 -39.633 -84.930  0.00  0.00    +0.000 C 
ATOM     25  O   UNL     1     -54.896 -40.788 -84.678  0.00  0.00    +0.000 OA
ATOM     26  N   UNL     1     -53.943 -41.151 -83.742  0.00  0.00    +0.000 NA
ENDBRANCH  20  21
ENDBRANCH  18  20
ENDBRANCH   2  18
TORSDOF 4
ENDMDL
MODEL 10
REMARK VINA RESULT:    -5.815      3.607      6.654
REMARK INTER + INTRA:          -7.934
REMARK INTER:                  -7.222
REMARK INTRA:                  -0.712
REMARK UNBOUND:                -0.760
REMARK  Name = 
REMARK  6 active torsions:
REMARK  status: ('A' for Active; 'I' for Inactive)
REMARK    1  A    between atoms: C_1  and  C_2
REMARK    2  A    between atoms: C_2  and  C_4
REMARK    3  A    between atoms: C_5  and  S_6
REMARK    4  A    between atoms: S_6  and  C_8
REMARK    5  A    between atoms: C_8  and  C_9
REMARK    6  A    between atoms: C_11  and  C_12
REMARK                            x       y       z     vdW  Elec       q    Type
REMARK                         _______ _______ _______ _____ _____    ______ ____
ROOT
ATOM      1  C   UNL     1     -58.496 -39.341 -62.250  0.00  0.00    +0.000 A 
ATOM      2  C   UNL     1     -57.489 -39.898 -62.966  0.00  0.00    +0.000 A 
ATOM      3  N   UNL     1     -56.397 -39.183 -63.415  0.00  0.00    +0.000 N 
ATOM      4  C   UNL     1     -56.267 -37.796 -63.248  0.00  0.00    +0.000 A 
ATOM      5  C   UNL     1     -55.101 -37.127 -63.666  0.00  0.00    +0.000 A 
ATOM      6 BR   UNL     1     -53.683 -38.067 -64.511  0.00  0.00    +0.000 Br
ATOM      7  C   UNL     1     -54.944 -35.758 -63.457  0.00  0.00    +0.000 A 
ATOM      8  C   UNL     1     -55.958 -35.038 -62.830  0.00  0.00    +0.000 A 
ATOM      9  C   UNL     1     -57.117 -35.687 -62.384  0.00  0.00    +0.000 A 
ATOM     10 CL   UNL     1     -58.286 -34.659 -61.632  0.00  0.00    +0.000 Cl
ATOM     11  C   UNL     1     -57.260 -37.076 -62.562  0.00  0.00    +0.000 A 
ATOM     12  C   UNL     1     -58.433 -37.846 -62.071  0.00  0.00    +0.000 A 
ATOM     13  O   UNL     1     -59.377 -37.266 -61.549  0.00  0.00    +0.000 OA
ATOM     14  H   UNL     1     -55.889 -39.590 -64.201  0.00  0.00    +0.000 HD
ENDROOT
BRANCH   1  16
ATOM     15  C   UNL     1     -60.957 -40.130 -62.441  0.00  0.00    +0.000 C 
ATOM     16  C   UNL     1     -59.658 -40.097 -61.668  0.00  0.00    +0.000 C 
ATOM     17  O   UNL     1     -59.588 -40.655 -60.570  0.00  0.00    +0.000 OA
ENDBRANCH   1  16
BRANCH   2  18
ATOM     18  S   UNL     1     -57.571 -41.635 -63.515  0.00  0.00    +0.000 S 
ATOM     19  O   UNL     1     -58.641 -41.618 -64.572  0.00  0.00    +0.000 OA
BRANCH  18  20
ATOM     20  C   UNL     1     -55.979 -41.731 -64.411  0.00  0.00    +0.000 C 
BRANCH  20  21
ATOM     21  C   UNL     1     -54.992 -42.591 -63.698  0.00  0.00    +0.000 A 
ATOM     22  C   UNL     1     -55.226 -43.665 -62.803  0.00  0.00    +0.000 A 
ATOM     23  C   UNL     1     -53.976 -44.159 -62.520  0.00  0.00    +0.000 A 
ATOM     24  C   UNL     1     -53.466 -45.266 -61.690  0.00  0.00    +0.000 C 
ATOM     25  O   UNL     1     -53.048 -43.429 -63.195  0.00  0.00    +0.000 OA
ATOM     26  N   UNL     1     -53.680 -42.448 -63.939  0.00  0.00    +0.000 NA
ENDBRANCH  20  21
ENDBRANCH  18  20
ENDBRANCH   2  18
TORSDOF 4
ENDMDL
MODEL 11
REMARK VINA RESULT:    -5.740     12.584     15.713
REMARK INTER + INTRA:          -7.842
REMARK INTER:                  -7.099
REMARK INTRA:                  -0.744
REMARK UNBOUND:                -0.760
REMARK  Name = 
REMARK  6 active torsions:
REMARK  status: ('A' for Active; 'I' for Inactive)
REMARK    1  A    between atoms: C_1  and  C_2
REMARK    2  A    between atoms: C_2  and  C_4
REMARK    3  A    between atoms: C_5  and  S_6
REMARK    4  A    between atoms: S_6  and  C_8
REMARK    5  A    between atoms: C_8  and  C_9
REMARK    6  A    between atoms: C_11  and  C_12
REMARK                            x       y       z     vdW  Elec       q    Type
REMARK                         _______ _______ _______ _____ _____    ______ ____
ROOT
ATOM      1  C   UNL     1     -67.025 -47.866 -57.279  0.00  0.00    +0.000 A 
ATOM      2  C   UNL     1     -65.966 -47.431 -56.554  0.00  0.00    +0.000 A 
ATOM      3  N   UNL     1     -65.497 -48.086 -55.434  0.00  0.00    +0.000 N 
ATOM      4  C   UNL     1     -66.123 -49.218 -54.889  0.00  0.00    +0.000 A 
ATOM      5  C   UNL     1     -65.565 -49.888 -53.784  0.00  0.00    +0.000 A 
ATOM      6 BR   UNL     1     -63.970 -49.261 -52.963  0.00  0.00    +0.000 Br
ATOM      7  C   UNL     1     -66.155 -51.042 -53.271  0.00  0.00    +0.000 A 
ATOM      8  C   UNL     1     -67.318 -51.537 -53.854  0.00  0.00    +0.000 A 
ATOM      9  C   UNL     1     -67.879 -50.900 -54.969  0.00  0.00    +0.000 A 
ATOM     10 CL   UNL     1     -69.325 -51.629 -55.576  0.00  0.00    +0.000 Cl
ATOM     11  C   UNL     1     -67.263 -49.756 -55.511  0.00  0.00    +0.000 A 
ATOM     12  C   UNL     1     -67.765 -49.055 -56.723  0.00  0.00    +0.000 A 
ATOM     13  O   UNL     1     -68.806 -49.416 -57.257  0.00  0.00    +0.000 OA
ATOM     14  H   UNL     1     -64.943 -47.526 -54.786  0.00  0.00    +0.000 HD
ENDROOT
BRANCH   1  16
ATOM     15  C   UNL     1     -68.609 -46.193 -58.466  0.00  0.00    +0.000 C 
ATOM     16  C   UNL     1     -67.514 -47.233 -58.552  0.00  0.00    +0.000 C 
ATOM     17  O   UNL     1     -67.075 -47.564 -59.656  0.00  0.00    +0.000 OA
ENDBRANCH   1  16
BRANCH   2  18
ATOM     18  S   UNL     1     -65.152 -45.843 -56.933  0.00  0.00    +0.000 S 
ATOM     19  O   UNL     1     -65.501 -44.980 -55.751  0.00  0.00    +0.000 OA
BRANCH  18  20
ATOM     20  C   UNL     1     -63.410 -46.347 -56.693  0.00  0.00    +0.000 C 
BRANCH  20  21
ATOM     21  C   UNL     1     -62.692 -46.497 -57.991  0.00  0.00    +0.000 A 
ATOM     22  C   UNL     1     -63.220 -46.783 -59.275  0.00  0.00    +0.000 A 
ATOM     23  C   UNL     1     -62.138 -46.714 -60.118  0.00  0.00    +0.000 A 
ATOM     24  C   UNL     1     -61.947 -46.879 -61.570  0.00  0.00    +0.000 C 
ATOM     25  O   UNL     1     -61.029 -46.413 -59.391  0.00  0.00    +0.000 OA
ATOM     26  N   UNL     1     -61.372 -46.270 -58.058  0.00  0.00    +0.000 NA
ENDBRANCH  20  21
ENDBRANCH  18  20
ENDBRANCH   2  18
TORSDOF 4
ENDMDL
MODEL 12
REMARK VINA RESULT:    -5.718     14.854     15.759
REMARK INTER + INTRA:          -7.815
REMARK INTER:                  -6.873
REMARK INTRA:                  -0.941
REMARK UNBOUND:                -0.760
REMARK  Name = 
REMARK  6 active torsions:
REMARK  status: ('A' for Active; 'I' for Inactive)
REMARK    1  A    between atoms: C_1  and  C_2
REMARK    2  A    between atoms: C_2  and  C_4
REMARK    3  A    between atoms: C_5  and  S_6
REMARK    4  A    between atoms: S_6  and  C_8
REMARK    5  A    between atoms: C_8  and  C_9
REMARK    6  A    between atoms: C_11  and  C_12
REMARK                            x       y       z     vdW  Elec       q    Type
REMARK                         _______ _______ _______ _____ _____    ______ ____
ROOT
ATOM      1  C   UNL     1     -56.076 -44.365 -78.487  0.00  0.00    +0.000 A 
ATOM      2  C   UNL     1     -55.493 -43.143 -78.441  0.00  0.00    +0.000 A 
ATOM      3  N   UNL     1     -54.456 -42.833 -77.586  0.00  0.00    +0.000 N 
ATOM      4  C   UNL     1     -53.963 -43.727 -76.623  0.00  0.00    +0.000 A 
ATOM      5  C   UNL     1     -52.858 -43.384 -75.820  0.00  0.00    +0.000 A 
ATOM      6 BR   UNL     1     -52.023 -41.685 -75.980  0.00  0.00    +0.000 Br
ATOM      7  C   UNL     1     -52.333 -44.287 -74.898  0.00  0.00    +0.000 A 
ATOM      8  C   UNL     1     -52.912 -45.546 -74.761  0.00  0.00    +0.000 A 
ATOM      9  C   UNL     1     -53.997 -45.918 -75.566  0.00  0.00    +0.000 A 
ATOM     10 CL   UNL     1     -54.611 -47.508 -75.275  0.00  0.00    +0.000 Cl
ATOM     11  C   UNL     1     -54.505 -45.020 -76.523  0.00  0.00    +0.000 A 
ATOM     12  C   UNL     1     -55.618 -45.357 -77.450  0.00  0.00    +0.000 A 
ATOM     13  O   UNL     1     -56.197 -46.432 -77.353  0.00  0.00    +0.000 OA
ATOM     14  H   UNL     1     -54.319 -41.842 -77.388  0.00  0.00    +0.000 HD
ENDROOT
BRANCH   1  16
ATOM     15  C   UNL     1     -58.594 -44.603 -79.052  0.00  0.00    +0.000 C 
ATOM     16  C   UNL     1     -57.148 -44.771 -79.461  0.00  0.00    +0.000 C 
ATOM     17  O   UNL     1     -56.879 -45.264 -80.559  0.00  0.00    +0.000 OA
ENDBRANCH   1  16
BRANCH   2  18
ATOM     18  S   UNL     1     -56.138 -41.752 -79.430  0.00  0.00    +0.000 S 
ATOM     19  O   UNL     1     -57.070 -41.050 -78.479  0.00  0.00    +0.000 OA
BRANCH  18  20
ATOM     20  C   UNL     1     -54.626 -40.725 -79.505  0.00  0.00    +0.000 C 
BRANCH  20  21
ATOM     21  C   UNL     1     -53.605 -41.307 -80.422  0.00  0.00    +0.000 A 
ATOM     22  C   UNL     1     -53.548 -41.260 -81.838  0.00  0.00    +0.000 A 
ATOM     23  C   UNL     1     -52.358 -41.869 -82.156  0.00  0.00    +0.000 A 
ATOM     24  C   UNL     1     -51.649 -42.155 -83.417  0.00  0.00    +0.000 C 
ATOM     25  O   UNL     1     -51.741 -42.262 -81.010  0.00  0.00    +0.000 OA
ATOM     26  N   UNL     1     -52.516 -41.907 -79.920  0.00  0.00    +0.000 NA
ENDBRANCH  20  21
ENDBRANCH  18  20
ENDBRANCH   2  18
TORSDOF 4
ENDMDL
MODEL 13
REMARK VINA RESULT:    -5.652     15.184     18.120
REMARK INTER + INTRA:          -7.733
REMARK INTER:                  -6.954
REMARK INTRA:                  -0.779
REMARK UNBOUND:                -0.760
REMARK  Name = 
REMARK  6 active torsions:
REMARK  status: ('A' for Active; 'I' for Inactive)
REMARK    1  A    between atoms: C_1  and  C_2
REMARK    2  A    between atoms: C_2  and  C_4
REMARK    3  A    between atoms: C_5  and  S_6
REMARK    4  A    between atoms: S_6  and  C_8
REMARK    5  A    between atoms: C_8  and  C_9
REMARK    6  A    between atoms: C_11  and  C_12
REMARK                            x       y       z     vdW  Elec       q    Type
REMARK                         _______ _______ _______ _____ _____    ______ ____
ROOT
ATOM      1  C   UNL     1     -68.914 -51.014 -55.400  0.00  0.00    +0.000 A 
ATOM      2  C   UNL     1     -68.093 -49.936 -55.356  0.00  0.00    +0.000 A 
ATOM      3  N   UNL     1     -66.938 -49.898 -54.602  0.00  0.00    +0.000 N 
ATOM      4  C   UNL     1     -66.547 -50.937 -53.744  0.00  0.00    +0.000 A 
ATOM      5  C   UNL     1     -65.324 -50.877 -53.050  0.00  0.00    +0.000 A 
ATOM      6 BR   UNL     1     -64.181 -49.368 -53.212  0.00  0.00    +0.000 Br
ATOM      7  C   UNL     1     -64.906 -51.928 -52.236  0.00  0.00    +0.000 A 
ATOM      8  C   UNL     1     -65.713 -53.055 -52.102  0.00  0.00    +0.000 A 
ATOM      9  C   UNL     1     -66.923 -53.149 -52.803  0.00  0.00    +0.000 A 
ATOM     10 CL   UNL     1     -67.816 -54.604 -52.528  0.00  0.00    +0.000 Cl
ATOM     11  C   UNL     1     -67.328 -52.103 -53.653  0.00  0.00    +0.000 A 
ATOM     12  C   UNL     1     -68.569 -52.148 -54.471  0.00  0.00    +0.000 A 
ATOM     13  O   UNL     1     -69.342 -53.092 -54.366  0.00  0.00    +0.000 OA
ATOM     14  H   UNL     1     -66.585 -48.969 -54.370  0.00  0.00    +0.000 HD
ENDROOT
BRANCH   1  16
ATOM     15  C   UNL     1     -71.464 -50.678 -55.714  0.00  0.00    +0.000 C 
ATOM     16  C   UNL     1     -70.134 -51.130 -56.272  0.00  0.00    +0.000 C 
ATOM     17  O   UNL     1     -70.081 -51.614 -57.405  0.00  0.00    +0.000 OA
ENDBRANCH   1  16
BRANCH   2  18
ATOM     18  S   UNL     1     -68.534 -48.379 -56.197  0.00  0.00    +0.000 S 
ATOM     19  O   UNL     1     -69.572 -47.774 -55.290  0.00  0.00    +0.000 OA
BRANCH  18  20
ATOM     20  C   UNL     1     -66.993 -47.441 -55.895  0.00  0.00    +0.000 C 
BRANCH  20  21
ATOM     21  C   UNL     1     -66.132 -47.384 -57.110  0.00  0.00    +0.000 A 
ATOM     22  C   UNL     1     -66.400 -47.863 -58.418  0.00  0.00    +0.000 A 
ATOM     23  C   UNL     1     -65.314 -47.467 -59.161  0.00  0.00    +0.000 A 
ATOM     24  C   UNL     1     -64.927 -47.602 -60.577  0.00  0.00    +0.000 C 
ATOM     25  O   UNL     1     -64.446 -46.800 -58.355  0.00  0.00    +0.000 OA
ATOM     26  N   UNL     1     -64.956 -46.741 -57.070  0.00  0.00    +0.000 NA
ENDBRANCH  20  21
ENDBRANCH  18  20
ENDBRANCH   2  18
TORSDOF 4
ENDMDL
MODEL 14
REMARK VINA RESULT:    -5.571     14.788     16.455
REMARK INTER + INTRA:          -7.633
REMARK INTER:                  -6.920
REMARK INTRA:                  -0.713
REMARK UNBOUND:                -0.760
REMARK  Name = 
REMARK  6 active torsions:
REMARK  status: ('A' for Active; 'I' for Inactive)
REMARK    1  A    between atoms: C_1  and  C_2
REMARK    2  A    between atoms: C_2  and  C_4
REMARK    3  A    between atoms: C_5  and  S_6
REMARK    4  A    between atoms: S_6  and  C_8
REMARK    5  A    between atoms: C_8  and  C_9
REMARK    6  A    between atoms: C_11  and  C_12
REMARK                            x       y       z     vdW  Elec       q    Type
REMARK                         _______ _______ _______ _____ _____    ______ ____
ROOT
ATOM      1  C   UNL     1     -55.803 -42.562 -79.211  0.00  0.00    +0.000 A 
ATOM      2  C   UNL     1     -55.454 -43.616 -78.433  0.00  0.00    +0.000 A 
ATOM      3  N   UNL     1     -54.481 -43.545 -77.458  0.00  0.00    +0.000 N 
ATOM      4  C   UNL     1     -53.700 -42.401 -77.235  0.00  0.00    +0.000 A 
ATOM      5  C   UNL     1     -52.768 -42.359 -76.181  0.00  0.00    +0.000 A 
ATOM      6 BR   UNL     1     -52.500 -43.864 -75.052  0.00  0.00    +0.000 Br
ATOM      7  C   UNL     1     -52.026 -41.208 -75.924  0.00  0.00    +0.000 A 
ATOM      8  C   UNL     1     -52.203 -40.082 -76.723  0.00  0.00    +0.000 A 
ATOM      9  C   UNL     1     -53.144 -40.093 -77.763  0.00  0.00    +0.000 A 
ATOM     10 CL   UNL     1     -53.244 -38.624 -78.671  0.00  0.00    +0.000 Cl
ATOM     11  C   UNL     1     -53.919 -41.242 -78.001  0.00  0.00    +0.000 A 
ATOM     12  C   UNL     1     -54.973 -41.315 -79.047  0.00  0.00    +0.000 A 
ATOM     13  O   UNL     1     -55.150 -40.374 -79.810  0.00  0.00    +0.000 OA
ATOM     14  H   UNL     1     -54.067 -44.433 -77.173  0.00  0.00    +0.000 HD
ENDROOT
BRANCH   1  16
ATOM     15  C   UNL     1     -58.299 -42.161 -79.780  0.00  0.00    +0.000 C 
ATOM     16  C   UNL     1     -56.913 -42.571 -80.225  0.00  0.00    +0.000 C 
ATOM     17  O   UNL     1     -56.730 -42.935 -81.389  0.00  0.00    +0.000 OA
ENDBRANCH   1  16
BRANCH   2  18
ATOM     18  S   UNL     1     -56.164 -45.273 -78.716  0.00  0.00    +0.000 S 
ATOM     19  O   UNL     1     -55.303 -45.840 -79.812  0.00  0.00    +0.000 OA
BRANCH  18  20
ATOM     20  C   UNL     1     -55.618 -46.088 -77.173  0.00  0.00    +0.000 C 
BRANCH  20  21
ATOM     21  C   UNL     1     -56.039 -47.517 -77.122  0.00  0.00    +0.000 A 
ATOM     22  C   UNL     1     -57.316 -48.081 -77.375  0.00  0.00    +0.000 A 
ATOM     23  C   UNL     1     -57.120 -49.437 -77.279  0.00  0.00    +0.000 A 
ATOM     24  C   UNL     1     -57.987 -50.620 -77.435  0.00  0.00    +0.000 C 
ATOM     25  O   UNL     1     -55.815 -49.677 -76.981  0.00  0.00    +0.000 OA
ATOM     26  N   UNL     1     -55.133 -48.477 -76.887  0.00  0.00    +0.000 NA
ENDBRANCH  20  21
ENDBRANCH  18  20
ENDBRANCH   2  18
TORSDOF 4
ENDMDL
MODEL 15
REMARK VINA RESULT:    -5.480      4.463      5.712
REMARK INTER + INTRA:          -7.521
REMARK INTER:                  -6.702
REMARK INTRA:                  -0.819
REMARK UNBOUND:                -0.760
REMARK  Name = 
REMARK  6 active torsions:
REMARK  status: ('A' for Active; 'I' for Inactive)
REMARK    1  A    between atoms: C_1  and  C_2
REMARK    2  A    between atoms: C_2  and  C_4
REMARK    3  A    between atoms: C_5  and  S_6
REMARK    4  A    between atoms: S_6  and  C_8
REMARK    5  A    between atoms: C_8  and  C_9
REMARK    6  A    between atoms: C_11  and  C_12
REMARK                            x       y       z     vdW  Elec       q    Type
REMARK                         _______ _______ _______ _____ _____    ______ ____
ROOT
ATOM      1  C   UNL     1     -58.799 -38.504 -62.100  0.00  0.00    +0.000 A 
ATOM      2  C   UNL     1     -58.411 -37.229 -61.852  0.00  0.00    +0.000 A 
ATOM      3  N   UNL     1     -57.189 -36.722 -62.245  0.00  0.00    +0.000 N 
ATOM      4  C   UNL     1     -56.198 -37.501 -62.862  0.00  0.00    +0.000 A 
ATOM      5  C   UNL     1     -54.995 -36.918 -63.305  0.00  0.00    +0.000 A 
ATOM      6 BR   UNL     1     -54.651 -35.068 -63.042  0.00  0.00    +0.000 Br
ATOM      7  C   UNL     1     -54.029 -37.676 -63.963  0.00  0.00    +0.000 A 
ATOM      8  C   UNL     1     -54.252 -39.033 -64.184  0.00  0.00    +0.000 A 
ATOM      9  C   UNL     1     -55.452 -39.629 -63.774  0.00  0.00    +0.000 A 
ATOM     10 CL   UNL     1     -55.579 -41.321 -64.111  0.00  0.00    +0.000 Cl
ATOM     11  C   UNL     1     -56.444 -38.857 -63.141  0.00  0.00    +0.000 A 
ATOM     12  C   UNL     1     -57.763 -39.402 -62.725  0.00  0.00    +0.000 A 
ATOM     13  O   UNL     1     -58.005 -40.596 -62.853  0.00  0.00    +0.000 OA
ATOM     14  H   UNL     1     -56.861 -35.900 -61.738  0.00  0.00    +0.000 HD
ENDROOT
BRANCH   1  16
ATOM     15  C   UNL     1     -60.315 -39.828 -60.468  0.00  0.00    +0.000 C 
ATOM     16  C   UNL     1     -60.151 -39.071 -61.767  0.00  0.00    +0.000 C 
ATOM     17  O   UNL     1     -61.109 -38.966 -62.536  0.00  0.00    +0.000 OA
ENDBRANCH   1  16
BRANCH   2  18
ATOM     18  S   UNL     1     -59.438 -36.109 -60.844  0.00  0.00    +0.000 S 
ATOM     19  O   UNL     1     -59.220 -36.604 -59.440  0.00  0.00    +0.000 OA
BRANCH  18  20
ATOM     20  C   UNL     1     -58.443 -34.583 -61.001  0.00  0.00    +0.000 C 
BRANCH  20  21
ATOM     21  C   UNL     1     -59.033 -33.635 -61.989  0.00  0.00    +0.000 A 
ATOM     22  C   UNL     1     -58.377 -32.827 -62.952  0.00  0.00    +0.000 A 
ATOM     23  C   UNL     1     -59.396 -32.227 -63.652  0.00  0.00    +0.000 A 
ATOM     24  C   UNL     1     -59.456 -31.289 -64.788  0.00  0.00    +0.000 C 
ATOM     25  O   UNL     1     -60.587 -32.639 -63.141  0.00  0.00    +0.000 OA
ATOM     26  N   UNL     1     -60.364 -33.526 -62.103  0.00  0.00    +0.000 NA
ENDBRANCH  20  21
ENDBRANCH  18  20
ENDBRANCH   2  18
TORSDOF 4
ENDMDL
MODEL 16
REMARK VINA RESULT:    -5.407     22.922     24.969
REMARK INTER + INTRA:          -7.431
REMARK INTER:                  -6.682
REMARK INTRA:                  -0.749
REMARK UNBOUND:                -0.760
REMARK  Name = 
REMARK  6 active torsions:
REMARK  status: ('A' for Active; 'I' for Inactive)
REMARK    1  A    between atoms: C_1  and  C_2
REMARK    2  A    between atoms: C_2  and  C_4
REMARK    3  A    between atoms: C_5  and  S_6
REMARK    4  A    between atoms: S_6  and  C_8
REMARK    5  A    between atoms: C_8  and  C_9
REMARK    6  A    between atoms: C_11  and  C_12
REMARK                            x       y       z     vdW  Elec       q    Type
REMARK                         _______ _______ _______ _____ _____    ______ ____
ROOT
ATOM      1  C   UNL     1     -66.218 -34.998 -85.342  0.00  0.00    +0.000 A 
ATOM      2  C   UNL     1     -66.444 -35.989 -84.445  0.00  0.00    +0.000 A 
ATOM      3  N   UNL     1     -67.503 -35.979 -83.561  0.00  0.00    +0.000 N 
ATOM      4  C   UNL     1     -68.398 -34.904 -83.448  0.00  0.00    +0.000 A 
ATOM      5  C   UNL     1     -69.502 -34.974 -82.577  0.00  0.00    +0.000 A 
ATOM      6 BR   UNL     1     -69.796 -36.505 -81.492  0.00  0.00    +0.000 Br
ATOM      7  C   UNL     1     -70.422 -33.930 -82.498  0.00  0.00    +0.000 A 
ATOM      8  C   UNL     1     -70.245 -32.796 -83.287  0.00  0.00    +0.000 A 
ATOM      9  C   UNL     1     -69.167 -32.714 -84.179  0.00  0.00    +0.000 A 
ATOM     10 CL   UNL     1     -69.077 -31.243 -85.083  0.00  0.00    +0.000 Cl
ATOM     11  C   UNL     1     -68.258 -33.783 -84.286  0.00  0.00    +0.000 A 
ATOM     12  C   UNL     1     -67.121 -33.797 -85.244  0.00  0.00    +0.000 A 
ATOM     13  O   UNL     1     -66.887 -32.813 -85.936  0.00  0.00    +0.000 OA
ATOM     14  H   UNL     1     -67.401 -36.565 -82.733  0.00  0.00    +0.000 HD
ENDROOT
BRANCH   1  16
ATOM     15  C   UNL     1     -65.336 -35.825 -87.635  0.00  0.00    +0.000 C 
ATOM     16  C   UNL     1     -65.129 -35.009 -86.379  0.00  0.00    +0.000 C 
ATOM     17  O   UNL     1     -64.067 -34.403 -86.215  0.00  0.00    +0.000 OA
ENDBRANCH   1  16
BRANCH   2  18
ATOM     18  S   UNL     1     -65.266 -37.367 -84.244  0.00  0.00    +0.000 S 
ATOM     19  O   UNL     1     -63.983 -36.678 -83.865  0.00  0.00    +0.000 OA
BRANCH  18  20
ATOM     20  C   UNL     1     -65.926 -38.088 -82.699  0.00  0.00    +0.000 C 
BRANCH  20  21
ATOM     21  C   UNL     1     -65.193 -37.594 -81.498  0.00  0.00    +0.000 A 
ATOM     22  C   UNL     1     -63.953 -38.033 -80.968  0.00  0.00    +0.000 A 
ATOM     23  C   UNL     1     -63.703 -37.179 -79.921  0.00  0.00    +0.000 A 
ATOM     24  C   UNL     1     -62.608 -37.032 -78.945  0.00  0.00    +0.000 C 
ATOM     25  O   UNL     1     -64.727 -36.288 -79.822  0.00  0.00    +0.000 OA
ATOM     26  N   UNL     1     -65.659 -36.541 -80.812  0.00  0.00    +0.000 NA
ENDBRANCH  20  21
ENDBRANCH  18  20
ENDBRANCH   2  18
TORSDOF 4
ENDMDL
MODEL 17
REMARK VINA RESULT:    -5.332      4.907      6.267
REMARK INTER + INTRA:          -7.339
REMARK INTER:                  -6.466
REMARK INTRA:                  -0.873
REMARK UNBOUND:                -0.760
REMARK  Name = 
REMARK  6 active torsions:
REMARK  status: ('A' for Active; 'I' for Inactive)
REMARK    1  A    between atoms: C_1  and  C_2
REMARK    2  A    between atoms: C_2  and  C_4
REMARK    3  A    between atoms: C_5  and  S_6
REMARK    4  A    between atoms: S_6  and  C_8
REMARK    5  A    between atoms: C_8  and  C_9
REMARK    6  A    between atoms: C_11  and  C_12
REMARK                            x       y       z     vdW  Elec       q    Type
REMARK                         _______ _______ _______ _____ _____    ______ ____
ROOT
ATOM      1  C   UNL     1     -58.402 -39.471 -61.960  0.00  0.00    +0.000 A 
ATOM      2  C   UNL     1     -58.768 -38.235 -61.542  0.00  0.00    +0.000 A 
ATOM      3  N   UNL     1     -58.097 -37.085 -61.906  0.00  0.00    +0.000 N 
ATOM      4  C   UNL     1     -56.923 -37.093 -62.673  0.00  0.00    +0.000 A 
ATOM      5  C   UNL     1     -56.316 -35.888 -63.074  0.00  0.00    +0.000 A 
ATOM      6 BR   UNL     1     -57.037 -34.209 -62.552  0.00  0.00    +0.000 Br
ATOM      7  C   UNL     1     -55.178 -35.889 -63.878  0.00  0.00    +0.000 A 
ATOM      8  C   UNL     1     -54.628 -37.100 -64.289  0.00  0.00    +0.000 A 
ATOM      9  C   UNL     1     -55.228 -38.312 -63.923  0.00  0.00    +0.000 A 
ATOM     10 CL   UNL     1     -54.425 -39.730 -64.503  0.00  0.00    +0.000 Cl
ATOM     11  C   UNL     1     -56.398 -38.311 -63.141  0.00  0.00    +0.000 A 
ATOM     12  C   UNL     1     -57.125 -39.550 -62.756  0.00  0.00    +0.000 A 
ATOM     13  O   UNL     1     -56.670 -40.648 -63.050  0.00  0.00    +0.000 OA
ATOM     14  H   UNL     1     -58.228 -36.278 -61.296  0.00  0.00    +0.000 HD
ENDROOT
BRANCH   1  16
ATOM     15  C   UNL     1     -58.740 -41.552 -60.453  0.00  0.00    +0.000 C 
ATOM     16  C   UNL     1     -59.153 -40.738 -61.659  0.00  0.00    +0.000 C 
ATOM     17  O   UNL     1     -60.064 -41.144 -62.384  0.00  0.00    +0.000 OA
ENDBRANCH   1  16
BRANCH   2  18
ATOM     18  S   UNL     1     -60.117 -38.009 -60.335  0.00  0.00    +0.000 S 
ATOM     19  O   UNL     1     -59.764 -36.715 -59.654  0.00  0.00    +0.000 OA
BRANCH  18  20
ATOM     20  C   UNL     1     -61.477 -37.614 -61.493  0.00  0.00    +0.000 C 
BRANCH  20  21
ATOM     21  C   UNL     1     -61.654 -36.143 -61.660  0.00  0.00    +0.000 A 
ATOM     22  C   UNL     1     -60.966 -35.254 -62.525  0.00  0.00    +0.000 A 
ATOM     23  C   UNL     1     -61.586 -34.042 -62.340  0.00  0.00    +0.000 A 
ATOM     24  C   UNL     1     -61.413 -32.695 -62.913  0.00  0.00    +0.000 C 
ATOM     25  O   UNL     1     -62.578 -34.188 -61.421  0.00  0.00    +0.000 OA
ATOM     26  N   UNL     1     -62.627 -35.504 -60.996  0.00  0.00    +0.000 NA
ENDBRANCH  20  21
ENDBRANCH  18  20
ENDBRANCH   2  18
TORSDOF 4
ENDMDL
MODEL 18
REMARK VINA RESULT:    -5.312     15.491     16.308
REMARK INTER + INTRA:          -7.314
REMARK INTER:                  -6.605
REMARK INTRA:                  -0.710
REMARK UNBOUND:                -0.760
REMARK  Name = 
REMARK  6 active torsions:
REMARK  status: ('A' for Active; 'I' for Inactive)
REMARK    1  A    between atoms: C_1  and  C_2
REMARK    2  A    between atoms: C_2  and  C_4
REMARK    3  A    between atoms: C_5  and  S_6
REMARK    4  A    between atoms: S_6  and  C_8
REMARK    5  A    between atoms: C_8  and  C_9
REMARK    6  A    between atoms: C_11  and  C_12
REMARK                            x       y       z     vdW  Elec       q    Type
REMARK                         _______ _______ _______ _____ _____    ______ ____
ROOT
ATOM      1  C   UNL     1     -56.514 -42.075 -80.977  0.00  0.00    +0.000 A 
ATOM      2  C   UNL     1     -56.248 -41.766 -79.685  0.00  0.00    +0.000 A 
ATOM      3  N   UNL     1     -54.970 -41.729 -79.165  0.00  0.00    +0.000 N 
ATOM      4  C   UNL     1     -53.832 -42.092 -79.901  0.00  0.00    +0.000 A 
ATOM      5  C   UNL     1     -52.545 -41.973 -79.344  0.00  0.00    +0.000 A 
ATOM      6 BR   UNL     1     -52.304 -41.359 -77.562  0.00  0.00    +0.000 Br
ATOM      7  C   UNL     1     -51.408 -42.283 -80.087  0.00  0.00    +0.000 A 
ATOM      8  C   UNL     1     -51.545 -42.725 -81.400  0.00  0.00    +0.000 A 
ATOM      9  C   UNL     1     -52.814 -42.829 -81.984  0.00  0.00    +0.000 A 
ATOM     10 CL   UNL     1     -52.822 -43.399 -83.618  0.00  0.00    +0.000 Cl
ATOM     11  C   UNL     1     -53.961 -42.481 -81.246  0.00  0.00    +0.000 A 
ATOM     12  C   UNL     1     -55.336 -42.513 -81.810  0.00  0.00    +0.000 A 
ATOM     13  O   UNL     1     -55.528 -42.932 -82.944  0.00  0.00    +0.000 OA
ATOM     14  H   UNL     1     -54.896 -41.821 -78.152  0.00  0.00    +0.000 HD
ENDROOT
BRANCH   1  16
ATOM     15  C   UNL     1     -58.705 -43.309 -81.603  0.00  0.00    +0.000 C 
ATOM     16  C   UNL     1     -57.879 -42.043 -81.606  0.00  0.00    +0.000 C 
ATOM     17  O   UNL     1     -58.323 -41.028 -82.149  0.00  0.00    +0.000 OA
ENDBRANCH   1  16
BRANCH   2  18
ATOM     18  S   UNL     1     -57.593 -41.502 -78.482  0.00  0.00    +0.000 S 
ATOM     19  O   UNL     1     -57.662 -42.810 -77.742  0.00  0.00    +0.000 OA
BRANCH  18  20
ATOM     20  C   UNL     1     -56.750 -40.332 -77.357  0.00  0.00    +0.000 C 
BRANCH  20  21
ATOM     21  C   UNL     1     -56.769 -40.808 -75.945  0.00  0.00    +0.000 A 
ATOM     22  C   UNL     1     -57.770 -40.628 -74.957  0.00  0.00    +0.000 A 
ATOM     23  C   UNL     1     -57.322 -41.346 -73.875  0.00  0.00    +0.000 A 
ATOM     24  C   UNL     1     -57.848 -41.619 -72.525  0.00  0.00    +0.000 C 
ATOM     25  O   UNL     1     -56.127 -41.917 -74.187  0.00  0.00    +0.000 OA
ATOM     26  N   UNL     1     -55.780 -41.587 -75.485  0.00  0.00    +0.000 NA
ENDBRANCH  20  21
ENDBRANCH  18  20
ENDBRANCH   2  18
TORSDOF 4
ENDMDL
MODEL 19
REMARK VINA RESULT:    -5.076     16.127     17.701
REMARK INTER + INTRA:          -7.022
REMARK INTER:                  -6.341
REMARK INTRA:                  -0.681
REMARK UNBOUND:                -0.760
REMARK  Name = 
REMARK  6 active torsions:
REMARK  status: ('A' for Active; 'I' for Inactive)
REMARK    1  A    between atoms: C_1  and  C_2
REMARK    2  A    between atoms: C_2  and  C_4
REMARK    3  A    between atoms: C_5  and  S_6
REMARK    4  A    between atoms: S_6  and  C_8
REMARK    5  A    between atoms: C_8  and  C_9
REMARK    6  A    between atoms: C_11  and  C_12
REMARK                            x       y       z     vdW  Elec       q    Type
REMARK                         _______ _______ _______ _____ _____    ______ ____
ROOT
ATOM      1  C   UNL     1     -68.423 -50.909 -55.324  0.00  0.00    +0.000 A 
ATOM      2  C   UNL     1     -68.034 -49.749 -55.909  0.00  0.00    +0.000 A 
ATOM      3  N   UNL     1     -66.860 -49.099 -55.589  0.00  0.00    +0.000 N 
ATOM      4  C   UNL     1     -65.999 -49.529 -54.568  0.00  0.00    +0.000 A 
ATOM      5  C   UNL     1     -64.780 -48.867 -54.327  0.00  0.00    +0.000 A 
ATOM      6 BR   UNL     1     -64.277 -47.343 -55.344  0.00  0.00    +0.000 Br
ATOM      7  C   UNL     1     -63.897 -49.320 -53.349  0.00  0.00    +0.000 A 
ATOM      8  C   UNL     1     -64.227 -50.441 -52.591  0.00  0.00    +0.000 A 
ATOM      9  C   UNL     1     -65.424 -51.130 -52.829  0.00  0.00    +0.000 A 
ATOM     10 CL   UNL     1     -65.696 -52.497 -51.804  0.00  0.00    +0.000 Cl
ATOM     11  C   UNL     1     -66.299 -50.695 -53.842  0.00  0.00    +0.000 A 
ATOM     12  C   UNL     1     -67.560 -51.401 -54.192  0.00  0.00    +0.000 A 
ATOM     13  O   UNL     1     -67.927 -52.368 -53.536  0.00  0.00    +0.000 OA
ATOM     14  H   UNL     1     -66.821 -48.106 -55.819  0.00  0.00    +0.000 HD
ENDROOT
BRANCH   1  16
ATOM     15  C   UNL     1     -70.908 -51.502 -54.889  0.00  0.00    +0.000 C 
ATOM     16  C   UNL     1     -69.648 -51.694 -55.702  0.00  0.00    +0.000 C 
ATOM     17  O   UNL     1     -69.639 -52.509 -56.628  0.00  0.00    +0.000 OA
ENDBRANCH   1  16
BRANCH   2  18
ATOM     18  S   UNL     1     -69.120 -48.877 -57.087  0.00  0.00    +0.000 S 
ATOM     19  O   UNL     1     -70.135 -48.210 -56.199  0.00  0.00    +0.000 OA
BRANCH  18  20
ATOM     20  C   UNL     1     -67.970 -47.557 -57.616  0.00  0.00    +0.000 C 
BRANCH  20  21
ATOM     21  C   UNL     1     -68.327 -47.015 -58.958  0.00  0.00    +0.000 A 
ATOM     22  C   UNL     1     -69.514 -47.206 -59.710  0.00  0.00    +0.000 A 
ATOM     23  C   UNL     1     -69.354 -46.410 -60.819  0.00  0.00    +0.000 A 
ATOM     24  C   UNL     1     -70.181 -46.104 -62.000  0.00  0.00    +0.000 C 
ATOM     25  O   UNL     1     -68.148 -45.785 -60.744  0.00  0.00    +0.000 OA
ATOM     26  N   UNL     1     -67.504 -46.157 -59.577  0.00  0.00    +0.000 NA
ENDBRANCH  20  21
ENDBRANCH  18  20
ENDBRANCH   2  18
TORSDOF 4
ENDMDL
MODEL 20
REMARK VINA RESULT:    -5.039      5.156      7.503
REMARK INTER + INTRA:          -6.977
REMARK INTER:                  -6.347
REMARK INTRA:                  -0.630
REMARK UNBOUND:                -0.760
REMARK  Name = 
REMARK  6 active torsions:
REMARK  status: ('A' for Active; 'I' for Inactive)
REMARK    1  A    between atoms: C_1  and  C_2
REMARK    2  A    between atoms: C_2  and  C_4
REMARK    3  A    between atoms: C_5  and  S_6
REMARK    4  A    between atoms: S_6  and  C_8
REMARK    5  A    between atoms: C_8  and  C_9
REMARK    6  A    between atoms: C_11  and  C_12
REMARK                            x       y       z     vdW  Elec       q    Type
REMARK                         _______ _______ _______ _____ _____    ______ ____
ROOT
ATOM      1  C   UNL     1     -59.300 -39.524 -61.658  0.00  0.00    +0.000 A 
ATOM      2  C   UNL     1     -58.275 -38.801 -62.170  0.00  0.00    +0.000 A 
ATOM      3  N   UNL     1     -58.309 -37.427 -62.297  0.00  0.00    +0.000 N 
ATOM      4  C   UNL     1     -59.440 -36.657 -61.987  0.00  0.00    +0.000 A 
ATOM      5  C   UNL     1     -59.399 -35.252 -62.069  0.00  0.00    +0.000 A 
ATOM      6 BR   UNL     1     -57.828 -34.351 -62.646  0.00  0.00    +0.000 Br
ATOM      7  C   UNL     1     -60.503 -34.479 -61.714  0.00  0.00    +0.000 A 
ATOM      8  C   UNL     1     -61.668 -35.103 -61.276  0.00  0.00    +0.000 A 
ATOM      9  C   UNL     1     -61.723 -36.499 -61.163  0.00  0.00    +0.000 A 
ATOM     10 CL   UNL     1     -63.238 -37.127 -60.613  0.00  0.00    +0.000 Cl
ATOM     11  C   UNL     1     -60.597 -37.279 -61.487  0.00  0.00    +0.000 A 
ATOM     12  C   UNL     1     -60.559 -38.758 -61.343  0.00  0.00    +0.000 A 
ATOM     13  O   UNL     1     -61.563 -39.371 -61.003  0.00  0.00    +0.000 OA
ATOM     14  H   UNL     1     -57.665 -37.024 -62.977  0.00  0.00    +0.000 HD
ENDROOT
BRANCH   1  16
ATOM     15  C   UNL     1     -58.714 -41.522 -60.115  0.00  0.00    +0.000 C 
ATOM     16  C   UNL     1     -59.272 -41.009 -61.423  0.00  0.00    +0.000 C 
ATOM     17  O   UNL     1     -59.657 -41.811 -62.277  0.00  0.00    +0.000 OA
ENDBRANCH   1  16
BRANCH   2  18
ATOM     18  S   UNL     1     -56.801 -39.618 -62.869  0.00  0.00    +0.000 S 
ATOM     19  O   UNL     1     -57.319 -40.255 -64.130  0.00  0.00    +0.000 OA
BRANCH  18  20
ATOM     20  C   UNL     1     -55.873 -38.134 -63.400  0.00  0.00    +0.000 C 
BRANCH  20  21
ATOM     21  C   UNL     1     -54.566 -38.490 -64.023  0.00  0.00    +0.000 A 
ATOM     22  C   UNL     1     -54.004 -39.773 -64.245  0.00  0.00    +0.000 A 
ATOM     23  C   UNL     1     -52.840 -39.526 -64.931  0.00  0.00    +0.000 A 
ATOM     24  C   UNL     1     -51.773 -40.374 -65.494  0.00  0.00    +0.000 C 
ATOM     25  O   UNL     1     -52.705 -38.185 -65.107  0.00  0.00    +0.000 OA
ATOM     26  N   UNL     1     -53.787 -37.532 -64.545  0.00  0.00    +0.000 NA
ENDBRANCH  20  21
ENDBRANCH  18  20
ENDBRANCH   2  18
TORSDOF 4
ENDMDL
