REMARK VINA RESULT:    -6.016     22.613     25.602
REMARK INTER + INTRA:          -8.139
REMARK INTER:                  -7.363
REMARK INTRA:                  -0.775
REMARK UNBOUND:                -0.716
REMARK  Name = 
REMARK  6 active torsions:
REMARK  status: ('A' for Active; 'I' for Inactive)
REMARK    1  A    between atoms: C_1  and  C_2
REMARK    2  A    between atoms: C_2  and  C_4
REMARK    3  A    between atoms: C_5  and  S_6
REMARK    4  A    between atoms: S_6  and  C_8
REMARK    5  A    between atoms: C_8  and  C_9
REMARK    6  A    between atoms: C_11  and  C_12
REMARK                            x       y       z     vdW  Elec       q    Type
REMARK                         _______ _______ _______ _____ _____    ______ ____
ROOT
ATOM      1  C   UNL     1     -68.894 -51.367 -55.597  0.00  0.00    +0.000 A 
ATOM      2  C   UNL     1     -68.101 -50.277 -55.688  0.00  0.00    +0.000 A 
ATOM      3  N   UNL     1     -66.921 -50.130 -54.984  0.00  0.00    +0.000 N 
ATOM      4  C   UNL     1     -66.517 -51.032 -53.984  0.00  0.00    +0.000 A 
ATOM      5  C   UNL     1     -65.337 -50.811 -53.252  0.00  0.00    +0.000 A 
ATOM      6 BR   UNL     1     -64.291 -49.247 -53.526  0.00  0.00    +0.000 Br
ATOM      7  C   UNL     1     -64.901 -51.727 -52.298  0.00  0.00    +0.000 A 
ATOM      8  C   UNL     1     -65.639 -52.886 -52.074  0.00  0.00    +0.000 A 
ATOM      9  C   UNL     1     -66.803 -53.141 -52.805  0.00  0.00    +0.000 A 
ATOM     10 CL   UNL     1     -67.615 -54.615 -52.406  0.00  0.00    +0.000 Cl
ATOM     11  C   UNL     1     -67.238 -52.220 -53.782  0.00  0.00    +0.000 A 
ATOM     12  C   UNL     1     -68.462 -52.417 -54.610  0.00  0.00    +0.000 A 
ATOM     13  O   UNL     1     -69.145 -53.424 -54.457  0.00  0.00    +0.000 OA
ATOM     14  H   UNL     1     -66.611 -49.166 -54.849  0.00  0.00    +0.000 HD
ENDROOT
BRANCH   1  16
ATOM     15  C   UNL     1     -71.496 -51.216 -55.731  0.00  0.00    +0.000 C 
ATOM     16  C   UNL     1     -70.173 -51.563 -56.376  0.00  0.00    +0.000 C 
ATOM     17  O   UNL     1     -70.170 -52.009 -57.524  0.00  0.00    +0.000 OA
ENDBRANCH   1  16
BRANCH   2  18
ATOM     18  S   UNL     1     -68.617 -48.804 -56.631  0.00  0.00    +0.000 S 
ATOM     19  O   UNL     1     -69.702 -48.205 -55.776  0.00  0.00    +0.000 OA
BRANCH  18  20
ATOM     20  C   UNL     1     -67.140 -47.751 -56.382  0.00  0.00    +0.000 C 
BRANCH  20  21
ATOM     21  C   UNL     1     -66.332 -47.607 -57.632  0.00  0.00    +0.000 A 
ATOM     22  C   UNL     1     -65.097 -46.943 -57.852  0.00  0.00    +0.000 A 
ATOM     23  C   UNL     1     -64.834 -47.133 -59.187  0.00  0.00    +0.000 A 
ATOM     24  C   UNL     1     -63.772 -46.683 -60.107  0.00  0.00    +0.000 C 
ATOM     25  O   UNL     1     -65.812 -47.906 -59.725  0.00  0.00    +0.000 OA
ATOM     26  N   UNL     1     -66.749 -48.211 -58.754  0.00  0.00    +0.000 NA
ENDBRANCH  20  21
ENDBRANCH  18  20
ENDBRANCH   2  18
TORSDOF 4
