REMARK VINA RESULT:    -5.794      2.842      3.995
REMARK INTER + INTRA:          -7.885
REMARK INTER:                  -7.206
REMARK INTRA:                  -0.679
REMARK UNBOUND:                -0.736
REMARK  Name = 
REMARK  6 active torsions:
REMARK  status: ('A' for Active; 'I' for Inactive)
REMARK    1  A    between atoms: C_1  and  C_2
REMARK    2  A    between atoms: C_2  and  C_4
REMARK    3  A    between atoms: C_5  and  S_6
REMARK    4  A    between atoms: S_6  and  C_8
REMARK    5  A    between atoms: C_8  and  C_9
REMARK    6  A    between atoms: C_11  and  C_12
REMARK                            x       y       z     vdW  Elec       q    Type
REMARK                         _______ _______ _______ _____ _____    ______ ____
ROOT
ATOM      1  C   UNL     1     -53.683 -42.286 -77.556  0.00  0.00    +0.000 A 
ATOM      2  C   UNL     1     -54.787 -42.594 -78.273  0.00  0.00    +0.000 A 
ATOM      3  N   UNL     1     -55.576 -43.700 -78.007  0.00  0.00    +0.000 N 
ATOM      4  C   UNL     1     -55.138 -44.734 -77.160  0.00  0.00    +0.000 A 
ATOM      5  C   UNL     1     -55.836 -45.952 -77.082  0.00  0.00    +0.000 A 
ATOM      6 BR   UNL     1     -57.359 -46.275 -78.169  0.00  0.00    +0.000 Br
ATOM      7  C   UNL     1     -55.417 -46.960 -76.218  0.00  0.00    +0.000 A 
ATOM      8  C   UNL     1     -54.295 -46.757 -75.416  0.00  0.00    +0.000 A 
ATOM      9  C   UNL     1     -53.602 -45.541 -75.457  0.00  0.00    +0.000 A 
ATOM     10 CL   UNL     1     -52.190 -45.437 -74.469  0.00  0.00    +0.000 Cl
ATOM     11  C   UNL     1     -54.041 -44.515 -76.310  0.00  0.00    +0.000 A 
ATOM     12  C   UNL     1     -53.419 -43.165 -76.365  0.00  0.00    +0.000 A 
ATOM     13  O   UNL     1     -52.737 -42.748 -75.436  0.00  0.00    +0.000 OA
ATOM     14  H   UNL     1     -56.121 -44.023 -78.810  0.00  0.00    +0.000 HD
ENDROOT
BRANCH   1  16
ATOM     15  C   UNL     1     -53.082 -39.755 -77.377  0.00  0.00    +0.000 C 
ATOM     16  C   UNL     1     -52.740 -41.155 -77.854  0.00  0.00    +0.000 C 
ATOM     17  O   UNL     1     -51.700 -41.347 -78.478  0.00  0.00    +0.000 OA
ENDBRANCH   1  16
BRANCH   2  18
ATOM     18  S   UNL     1     -55.263 -41.655 -79.762  0.00  0.00    +0.000 S 
ATOM     19  O   UNL     1     -54.234 -42.074 -80.777  0.00  0.00    +0.000 OA
BRANCH  18  20
ATOM     20  C   UNL     1     -56.795 -42.583 -80.165  0.00  0.00    +0.000 C 
BRANCH  20  21
ATOM     21  C   UNL     1     -57.752 -41.851 -81.050  0.00  0.00    +0.000 A 
ATOM     22  C   UNL     1     -59.119 -41.516 -80.866  0.00  0.00    +0.000 A 
ATOM     23  C   UNL     1     -59.441 -40.751 -81.961  0.00  0.00    +0.000 A 
ATOM     24  C   UNL     1     -60.660 -40.059 -82.423  0.00  0.00    +0.000 C 
ATOM     25  O   UNL     1     -58.346 -40.627 -82.753  0.00  0.00    +0.000 OA
ATOM     26  N   UNL     1     -57.286 -41.309 -82.187  0.00  0.00    +0.000 NA
ENDBRANCH  20  21
ENDBRANCH  18  20
ENDBRANCH   2  18
TORSDOF 4
