REMARK VINA RESULT:    -5.205      9.860     12.100
REMARK INTER + INTRA:          -7.649
REMARK INTER:                  -6.463
REMARK INTRA:                  -1.186
REMARK UNBOUND:                -0.922
REMARK  Name = 
REMARK  6 active torsions:
REMARK  status: ('A' for Active; 'I' for Inactive)
REMARK    1  A    between atoms: C_1  and  C_2
REMARK    2  A    between atoms: C_4  and  C_5
REMARK    3  A    between atoms: C_5  and  S_6
REMARK    4  A    between atoms: S_6  and  C_8
REMARK    5  A    between atoms: C_20  and  C_21
REMARK    6  A    between atoms: C_21  and  C_23
REMARK                            x       y       z     vdW  Elec       q    Type
REMARK                         _______ _______ _______ _____ _____    ______ ____
ROOT
ATOM      1  C   UNL     1     -65.809 -42.492 -69.675  0.00  0.00    +0.000 A 
ATOM      2  N   UNL     1     -64.499 -42.428 -69.161  0.00  0.00    +0.000 N 
ATOM      3  C   UNL     1     -63.383 -42.315 -70.035  0.00  0.00    +0.000 A 
ATOM      4  C   UNL     1     -62.120 -41.862 -69.612  0.00  0.00    +0.000 A 
ATOM      5 BR   UNL     1     -61.857 -41.190 -67.857  0.00  0.00    +0.000 Br
ATOM      6  C   UNL     1     -61.019 -41.870 -70.480  0.00  0.00    +0.000 A 
ATOM      7  C   UNL     1     -61.180 -42.309 -71.799  0.00  0.00    +0.000 A 
ATOM      8  C   UNL     1     -62.423 -42.761 -72.241  0.00  0.00    +0.000 A 
ATOM      9 CL   UNL     1     -62.535 -43.213 -73.904  0.00  0.00    +0.000 Cl
ATOM     10  C   UNL     1     -63.509 -42.781 -71.353  0.00  0.00    +0.000 A 
ATOM     11  C   UNL     1     -64.837 -43.320 -71.705  0.00  0.00    +0.000 A 
ATOM     12  O   UNL     1     -64.970 -44.228 -72.516  0.00  0.00    +0.000 OA
ATOM     13  C   UNL     1     -66.031 -42.778 -70.977  0.00  0.00    +0.000 A 
ATOM     14  H   UNL     1     -64.437 -41.825 -68.329  0.00  0.00    +0.000 HD
ENDROOT
BRANCH   1  15
ATOM     15  S   UNL     1     -67.029 -41.735 -68.570  0.00  0.00    +0.000 S 
ATOM     16  O   UNL     1     -66.200 -41.066 -67.507  0.00  0.00    +0.000 OA
BRANCH  15  17
ATOM     17  C   UNL     1     -68.003 -43.038 -67.759  0.00  0.00    +0.000 C 
BRANCH  17  21
ATOM     18  C   UNL     1     -70.194 -46.861 -70.366  0.00  0.00    +0.000 C 
ATOM     19  C   UNL     1     -69.760 -45.681 -69.596  0.00  0.00    +0.000 A 
ATOM     20  C   UNL     1     -68.564 -45.259 -69.067  0.00  0.00    +0.000 A 
ATOM     21  C   UNL     1     -68.844 -43.982 -68.531  0.00  0.00    +0.000 A 
ATOM     22  N   UNL     1     -70.148 -43.688 -68.670  0.00  0.00    +0.000 NA
ATOM     23  O   UNL     1     -70.716 -44.753 -69.338  0.00  0.00    +0.000 OA
ENDBRANCH  17  21
ENDBRANCH  15  17
ENDBRANCH   1  15
BRANCH  13  24
ATOM     24  C   UNL     1     -67.195 -42.493 -71.864  0.00  0.00    +0.000 C 
ATOM     25  O   UNL     1     -68.138 -43.263 -71.917  0.00  0.00    +0.000 OA
BRANCH  24  26
ATOM     26  C   UNL     1     -67.206 -41.239 -72.641  0.00  0.00    +0.000 C 
ATOM     27  C   UNL     1     -66.344 -40.085 -72.199  0.00  0.00    +0.000 C 
ATOM     28  C   UNL     1     -67.834 -39.982 -72.089  0.00  0.00    +0.000 C 
ENDBRANCH  24  26
ENDBRANCH  13  24
TORSDOF 5
