REMARK VINA RESULT:    -5.376      4.178      6.306
REMARK INTER + INTRA:          -7.890
REMARK INTER:                  -7.094
REMARK INTRA:                  -0.796
REMARK UNBOUND:                -0.943
REMARK  Name = 
REMARK  6 active torsions:
REMARK  status: ('A' for Active; 'I' for Inactive)
REMARK    1  A    between atoms: C_1  and  C_2
REMARK    2  A    between atoms: C_4  and  C_5
REMARK    3  A    between atoms: C_5  and  S_6
REMARK    4  A    between atoms: S_6  and  C_8
REMARK    5  A    between atoms: C_20  and  C_21
REMARK    6  A    between atoms: C_21  and  C_23
REMARK                            x       y       z     vdW  Elec       q    Type
REMARK                         _______ _______ _______ _____ _____    ______ ____
ROOT
ATOM      1  C   UNL     1     -56.787 -43.387 -78.234  0.00  0.00    +0.000 A 
ATOM      2  N   UNL     1     -56.686 -42.424 -79.256  0.00  0.00    +0.000 N 
ATOM      3  C   UNL     1     -55.560 -41.558 -79.326  0.00  0.00    +0.000 A 
ATOM      4  C   UNL     1     -55.198 -40.863 -80.495  0.00  0.00    +0.000 A 
ATOM      5 BR   UNL     1     -56.096 -41.173 -82.137  0.00  0.00    +0.000 Br
ATOM      6  C   UNL     1     -54.147 -39.935 -80.491  0.00  0.00    +0.000 A 
ATOM      7  C   UNL     1     -53.424 -39.713 -79.313  0.00  0.00    +0.000 A 
ATOM      8  C   UNL     1     -53.763 -40.392 -78.143  0.00  0.00    +0.000 A 
ATOM      9 CL   UNL     1     -52.765 -40.102 -76.764  0.00  0.00    +0.000 Cl
ATOM     10  C   UNL     1     -54.840 -41.292 -78.151  0.00  0.00    +0.000 A 
ATOM     11  C   UNL     1     -55.326 -41.990 -76.945  0.00  0.00    +0.000 A 
ATOM     12  O   UNL     1     -55.233 -41.491 -75.830  0.00  0.00    +0.000 OA
ATOM     13  C   UNL     1     -56.017 -43.309 -77.126  0.00  0.00    +0.000 A 
ATOM     14  H   UNL     1     -56.982 -42.794 -80.170  0.00  0.00    +0.000 HD
ENDROOT
BRANCH   1  15
ATOM     15  S   UNL     1     -57.663 -44.881 -78.768  0.00  0.00    +0.000 S 
ATOM     16  O   UNL     1     -58.575 -45.206 -77.616  0.00  0.00    +0.000 OA
BRANCH  15  17
ATOM     17  C   UNL     1     -56.482 -46.252 -78.930  0.00  0.00    +0.000 C 
BRANCH  17  21
ATOM     18  C   UNL     1     -57.399 -51.157 -77.780  0.00  0.00    +0.000 C 
ATOM     19  C   UNL     1     -57.308 -49.757 -78.235  0.00  0.00    +0.000 A 
ATOM     20  C   UNL     1     -56.502 -48.688 -77.920  0.00  0.00    +0.000 A 
ATOM     21  C   UNL     1     -56.904 -47.667 -78.809  0.00  0.00    +0.000 A 
ATOM     22  N   UNL     1     -57.939 -48.078 -79.563  0.00  0.00    +0.000 NA
ATOM     23  O   UNL     1     -58.186 -49.385 -79.201  0.00  0.00    +0.000 OA
ENDBRANCH  17  21
ENDBRANCH  15  17
ENDBRANCH   1  15
BRANCH  13  24
ATOM     24  C   UNL     1     -55.593 -44.347 -76.144  0.00  0.00    +0.000 C 
ATOM     25  O   UNL     1     -56.321 -44.658 -75.217  0.00  0.00    +0.000 OA
BRANCH  24  26
ATOM     26  C   UNL     1     -54.298 -45.025 -76.341  0.00  0.00    +0.000 C 
ATOM     27  C   UNL     1     -54.009 -46.302 -75.595  0.00  0.00    +0.000 C 
ATOM     28  C   UNL     1     -53.255 -45.055 -75.249  0.00  0.00    +0.000 C 
ENDBRANCH  24  26
ENDBRANCH  13  24
TORSDOF 5
