REMARK VINA RESULT:    -6.415      4.047      5.991
REMARK INTER + INTRA:          -8.631
REMARK INTER:                  -7.876
REMARK INTRA:                  -0.755
REMARK UNBOUND:                -0.716
REMARK  Name = 
REMARK  6 active torsions:
REMARK  status: ('A' for Active; 'I' for Inactive)
REMARK    1  A    between atoms: C_1  and  C_2
REMARK    2  A    between atoms: C_2  and  C_4
REMARK    3  A    between atoms: C_5  and  S_6
REMARK    4  A    between atoms: S_6  and  C_8
REMARK    5  A    between atoms: C_8  and  C_9
REMARK    6  A    between atoms: C_11  and  C_12
REMARK                            x       y       z     vdW  Elec       q    Type
REMARK                         _______ _______ _______ _____ _____    ______ ____
ROOT
ATOM      1  C   UNL     1     -55.677 -41.548 -78.825  0.00  0.00    +0.000 A 
ATOM      2  C   UNL     1     -54.361 -41.774 -78.615  0.00  0.00    +0.000 A 
ATOM      3  N   UNL     1     -53.455 -42.010 -79.632  0.00  0.00    +0.000 N 
ATOM      4  C   UNL     1     -53.847 -42.199 -80.969  0.00  0.00    +0.000 A 
ATOM      5  C   UNL     1     -52.895 -42.495 -81.961  0.00  0.00    +0.000 A 
ATOM      6 BR   UNL     1     -51.062 -42.737 -81.520  0.00  0.00    +0.000 Br
ATOM      7  C   UNL     1     -53.268 -42.630 -83.296  0.00  0.00    +0.000 A 
ATOM      8  C   UNL     1     -54.601 -42.454 -83.656  0.00  0.00    +0.000 A 
ATOM      9  C   UNL     1     -55.562 -42.136 -82.693  0.00  0.00    +0.000 A 
ATOM     10 CL   UNL     1     -57.175 -41.961 -83.292  0.00  0.00    +0.000 Cl
ATOM     11  C   UNL     1     -55.184 -41.986 -81.342  0.00  0.00    +0.000 A 
ATOM     12  C   UNL     1     -56.142 -41.640 -80.253  0.00  0.00    +0.000 A 
ATOM     13  O   UNL     1     -57.328 -41.470 -80.517  0.00  0.00    +0.000 OA
ATOM     14  H   UNL     1     -52.609 -42.511 -79.354  0.00  0.00    +0.000 HD
ENDROOT
BRANCH   1  16
ATOM     15  C   UNL     1     -57.475 -42.400 -77.137  0.00  0.00    +0.000 C 
ATOM     16  C   UNL     1     -56.681 -41.261 -77.735  0.00  0.00    +0.000 C 
ATOM     17  O   UNL     1     -56.878 -40.117 -77.323  0.00  0.00    +0.000 OA
ENDBRANCH   1  16
BRANCH   2  18
ATOM     18  S   UNL     1     -53.688 -41.964 -76.932  0.00  0.00    +0.000 S 
ATOM     19  O   UNL     1     -53.951 -43.411 -76.611  0.00  0.00    +0.000 OA
BRANCH  18  20
ATOM     20  C   UNL     1     -51.899 -41.847 -77.305  0.00  0.00    +0.000 C 
BRANCH  20  21
ATOM     21  C   UNL     1     -51.257 -40.675 -76.635  0.00  0.00    +0.000 A 
ATOM     22  C   UNL     1     -49.984 -40.556 -76.018  0.00  0.00    +0.000 A 
ATOM     23  C   UNL     1     -49.934 -39.258 -75.571  0.00  0.00    +0.000 A 
ATOM     24  C   UNL     1     -48.957 -38.466 -74.802  0.00  0.00    +0.000 C 
ATOM     25  O   UNL     1     -51.075 -38.619 -75.940  0.00  0.00    +0.000 OA
ATOM     26  N   UNL     1     -51.903 -39.499 -76.612  0.00  0.00    +0.000 NA
ENDBRANCH  20  21
ENDBRANCH  18  20
ENDBRANCH   2  18
TORSDOF 4
