REMARK VINA RESULT:    -5.255     10.656     13.640
REMARK INTER + INTRA:          -7.919
REMARK INTER:                  -6.960
REMARK INTRA:                  -0.958
REMARK UNBOUND:                -1.127
REMARK  Name = 
REMARK  8 active torsions:
REMARK  status: ('A' for Active; 'I' for Inactive)
REMARK    1  A    between atoms: C_1  and  C_2
REMARK    2  A    between atoms: C_4  and  C_5
REMARK    3  A    between atoms: C_5  and  S_6
REMARK    4  A    between atoms: S_6  and  C_8
REMARK    5  A    between atoms: C_20  and  C_21
REMARK    6  A    between atoms: C_21  and  C_23
REMARK    7  A    between atoms: C_23  and  C_24
REMARK    8  A    between atoms: C_23  and  C_25
REMARK                            x       y       z     vdW  Elec       q    Type
REMARK                         _______ _______ _______ _____ _____    ______ ____
ROOT
ATOM      1  C   UNL     1     -67.347 -40.347 -68.429  0.00  0.00    +0.000 A 
ATOM      2  N   UNL     1     -66.284 -40.156 -69.306  0.00  0.00    +0.000 N 
ATOM      3  C   UNL     1     -64.952 -40.401 -68.917  0.00  0.00    +0.000 A 
ATOM      4  C   UNL     1     -63.927 -40.623 -69.856  0.00  0.00    +0.000 A 
ATOM      5 BR   UNL     1     -64.313 -40.769 -71.707  0.00  0.00    +0.000 Br
ATOM      6  C   UNL     1     -62.600 -40.785 -69.446  0.00  0.00    +0.000 A 
ATOM      7  C   UNL     1     -62.280 -40.733 -68.092  0.00  0.00    +0.000 A 
ATOM      8  C   UNL     1     -63.291 -40.519 -67.138  0.00  0.00    +0.000 A 
ATOM      9 CL   UNL     1     -62.784 -40.545 -65.488  0.00  0.00    +0.000 Cl
ATOM     10  C   UNL     1     -64.628 -40.348 -67.552  0.00  0.00    +0.000 A 
ATOM     11  C   UNL     1     -65.761 -40.085 -66.627  0.00  0.00    +0.000 A 
ATOM     12  O   UNL     1     -65.553 -39.583 -65.527  0.00  0.00    +0.000 OA
ATOM     13  C   UNL     1     -67.174 -40.432 -67.088  0.00  0.00    +0.000 A 
ATOM     14  H   UNL     1     -66.512 -40.360 -70.289  0.00  0.00    +0.000 HD
ENDROOT
BRANCH   1  15
ATOM     15  S   UNL     1     -68.910 -40.675 -69.328  0.00  0.00    +0.000 S 
ATOM     16  O   UNL     1     -68.592 -41.880 -70.172  0.00  0.00    +0.000 OA
BRANCH  15  17
ATOM     17  C   UNL     1     -69.074 -39.227 -70.426  0.00  0.00    +0.000 C 
BRANCH  17  21
ATOM     18  C   UNL     1     -71.441 -34.816 -69.107  0.00  0.00    +0.000 C 
ATOM     19  C   UNL     1     -70.814 -36.143 -69.294  0.00  0.00    +0.000 A 
ATOM     20  C   UNL     1     -70.240 -36.809 -70.353  0.00  0.00    +0.000 A 
ATOM     21  C   UNL     1     -69.807 -38.056 -69.816  0.00  0.00    +0.000 A 
ATOM     22  N   UNL     1     -70.131 -38.128 -68.514  0.00  0.00    +0.000 NA
ATOM     23  O   UNL     1     -70.753 -36.936 -68.194  0.00  0.00    +0.000 OA
ENDBRANCH  17  21
ENDBRANCH  15  17
ENDBRANCH   1  15
BRANCH  13  24
ATOM     24  C   UNL     1     -68.154 -40.852 -66.016  0.00  0.00    +0.000 C 
ATOM     25  O   UNL     1     -68.949 -40.037 -65.550  0.00  0.00    +0.000 OA
BRANCH  24  26
ATOM     26  C   UNL     1     -68.122 -42.274 -65.454  0.00  0.00    +0.000 C 
ATOM     27  C   UNL     1     -68.578 -42.318 -63.998  0.00  0.00    +0.000 C 
ATOM     28  C   UNL     1     -68.954 -43.242 -66.300  0.00  0.00    +0.000 C 
ENDBRANCH  24  26
ENDBRANCH  13  24
TORSDOF 5
