REMARK VINA RESULT:    -6.038     11.311     14.571
REMARK INTER + INTRA:          -8.562
REMARK INTER:                  -7.567
REMARK INTRA:                  -0.995
REMARK UNBOUND:                -0.760
REMARK  Name = 
REMARK  8 active torsions:
REMARK  status: ('A' for Active; 'I' for Inactive)
REMARK    1  A    between atoms: C_1  and  C_2
REMARK    2  A    between atoms: C_4  and  C_5
REMARK    3  A    between atoms: C_5  and  S_6
REMARK    4  A    between atoms: S_6  and  C_8
REMARK    5  A    between atoms: C_20  and  C_21
REMARK    6  A    between atoms: C_21  and  C_23
REMARK    7  A    between atoms: C_23  and  C_24
REMARK    8  A    between atoms: C_23  and  C_25
REMARK                            x       y       z     vdW  Elec       q    Type
REMARK                         _______ _______ _______ _____ _____    ______ ____
ROOT
ATOM      1  C   UNL     1     -54.821 -42.043 -78.034  0.00  0.00    +0.000 A 
ATOM      2  N   UNL     1     -56.144 -42.429 -77.842  0.00  0.00    +0.000 N 
ATOM      3  C   UNL     1     -56.768 -42.328 -76.583  0.00  0.00    +0.000 A 
ATOM      4  C   UNL     1     -58.168 -42.306 -76.441  0.00  0.00    +0.000 A 
ATOM      5 BR   UNL     1     -59.302 -42.245 -77.961  0.00  0.00    +0.000 Br
ATOM      6  C   UNL     1     -58.762 -42.284 -75.176  0.00  0.00    +0.000 A 
ATOM      7  C   UNL     1     -57.965 -42.279 -74.035  0.00  0.00    +0.000 A 
ATOM      8  C   UNL     1     -56.564 -42.294 -74.155  0.00  0.00    +0.000 A 
ATOM      9 CL   UNL     1     -55.682 -42.214 -72.673  0.00  0.00    +0.000 Cl
ATOM     10  C   UNL     1     -55.964 -42.323 -75.431  0.00  0.00    +0.000 A 
ATOM     11  C   UNL     1     -54.498 -42.373 -75.664  0.00  0.00    +0.000 A 
ATOM     12  O   UNL     1     -53.753 -42.818 -74.796  0.00  0.00    +0.000 OA
ATOM     13  C   UNL     1     -53.955 -41.884 -77.004  0.00  0.00    +0.000 A 
ATOM     14  H   UNL     1     -56.748 -42.268 -78.660  0.00  0.00    +0.000 HD
ENDROOT
BRANCH   1  15
ATOM     15  S   UNL     1     -54.500 -41.584 -79.779  0.00  0.00    +0.000 S 
ATOM     16  O   UNL     1     -54.987 -40.163 -79.872  0.00  0.00    +0.000 OA
BRANCH  15  17
ATOM     17  C   UNL     1     -55.651 -42.650 -80.710  0.00  0.00    +0.000 C 
BRANCH  17  21
ATOM     18  C   UNL     1     -59.679 -40.428 -83.086  0.00  0.00    +0.000 C 
ATOM     19  C   UNL     1     -58.410 -40.969 -82.550  0.00  0.00    +0.000 A 
ATOM     20  C   UNL     1     -58.055 -41.696 -81.436  0.00  0.00    +0.000 A 
ATOM     21  C   UNL     1     -56.650 -41.903 -81.562  0.00  0.00    +0.000 A 
ATOM     22  N   UNL     1     -56.201 -41.310 -82.681  0.00  0.00    +0.000 NA
ATOM     23  O   UNL     1     -57.299 -40.734 -83.293  0.00  0.00    +0.000 OA
ENDBRANCH  17  21
ENDBRANCH  15  17
ENDBRANCH   1  15
BRANCH  13  24
ATOM     24  C   UNL     1     -52.575 -41.267 -76.993  0.00  0.00    +0.000 C 
ATOM     25  O   UNL     1     -51.603 -41.917 -77.375  0.00  0.00    +0.000 OA
BRANCH  24  26
ATOM     26  C   UNL     1     -52.364 -39.855 -76.445  0.00  0.00    +0.000 C 
ATOM     27  C   UNL     1     -50.900 -39.593 -76.102  0.00  0.00    +0.000 C 
ATOM     28  C   UNL     1     -52.883 -38.784 -77.409  0.00  0.00    +0.000 C 
ENDBRANCH  24  26
ENDBRANCH  13  24
TORSDOF 5
