REMARK  Name = 
REMARK  5 active torsions:
REMARK  status: ('A' for Active; 'I' for Inactive)
REMARK    1  A    between atoms: C_1  and  C_2
REMARK    2  A    between atoms: C_2  and  C_4
REMARK    3  A    between atoms: C_5  and  S_6
REMARK    4  A    between atoms: S_6  and  C_8
REMARK    5  A    between atoms: C_8  and  C_9
REMARK                            x       y       z     vdW  Elec       q    Type
REMARK                         _______ _______ _______ _____ _____    ______ ____
ROOT
ATOM      1  C   UNL     1       3.128  -0.098  -1.334  0.00  0.00    +0.000 A 
ATOM      2  C   UNL     1       2.825   0.649  -2.422  0.00  0.00    +0.000 A 
ATOM      3  N   UNL     1       3.506   0.552  -3.622  0.00  0.00    +0.000 N 
ATOM      4  C   UNL     1       4.653  -0.239  -3.791  0.00  0.00    +0.000 A 
ATOM      5  C   UNL     1       5.314  -0.296  -5.031  0.00  0.00    +0.000 A 
ATOM      6 BR   UNL     1       4.725   0.755  -6.501  0.00  0.00    +0.000 Br
ATOM      7  C   UNL     1       6.418  -1.123  -5.221  0.00  0.00    +0.000 A 
ATOM      8  C   UNL     1       6.873  -1.912  -4.168  0.00  0.00    +0.000 A 
ATOM      9  C   UNL     1       6.219  -1.892  -2.931  0.00  0.00    +0.000 A 
ATOM     10 CL   UNL     1       6.907  -2.919  -1.721  0.00  0.00    +0.000 Cl
ATOM     11  C   UNL     1       5.089  -1.069  -2.743  0.00  0.00    +0.000 A 
ATOM     12  C   UNL     1       4.328  -1.002  -1.464  0.00  0.00    +0.000 A 
ATOM     13  O   UNL     1       4.700  -1.656  -0.498  0.00  0.00    +0.000 OA
ATOM     14  H   UNL     1       3.446   1.376  -4.224  0.00  0.00    +0.000 HD
ENDROOT
BRANCH   1  16
ATOM     15  C   UNL     1       2.476  -1.223   0.921  0.00  0.00    +0.000 C 
ATOM     16  C   UNL     1       2.379  -0.051  -0.030  0.00  0.00    +0.000 C 
ATOM     17  O   UNL     1       1.665   0.904   0.274  0.00  0.00    +0.000 OA
ENDBRANCH   1  16
BRANCH   2  18
ATOM     18  S   UNL     1       1.590   1.989  -2.352  0.00  0.00    +0.000 S 
ATOM     19  O   UNL     1       2.385   3.206  -2.748  0.00  0.00    +0.000 OA
BRANCH  18  20
ATOM     20  C   UNL     1       0.588   1.539  -3.822  0.00  0.00    +0.000 C 
BRANCH  20  21
ATOM     21  C   UNL     1      -0.611   2.440  -4.021  0.00  0.00    +0.000 A 
ATOM     22  C   UNL     1      -0.454   3.799  -4.343  0.00  0.00    +0.000 A 
ATOM     23  C   UNL     1      -1.567   4.622  -4.540  0.00  0.00    +0.000 A 
ATOM     24  C   UNL     1      -2.852   4.098  -4.428  0.00  0.00    +0.000 A 
ATOM     25  C   UNL     1      -3.024   2.749  -4.125  0.00  0.00    +0.000 A 
ATOM     26  C   UNL     1      -1.913   1.925  -3.924  0.00  0.00    +0.000 A 
ENDBRANCH  20  21
ENDBRANCH  18  20
ENDBRANCH   2  18
TORSDOF 4
