REMARK VINA RESULT:    -5.050     13.585     16.587
REMARK INTER + INTRA:          -7.234
REMARK INTER:                  -6.405
REMARK INTRA:                  -0.829
REMARK UNBOUND:                -1.003
REMARK  Name = 
REMARK  6 active torsions:
REMARK  status: ('A' for Active; 'I' for Inactive)
REMARK    1  A    between atoms: C_1  and  C_2
REMARK    2  A    between atoms: C_2  and  C_4
REMARK    3  A    between atoms: C_5  and  S_6
REMARK    4  A    between atoms: S_6  and  C_8
REMARK    5  A    between atoms: C_8  and  C_9
REMARK    6  A    between atoms: C_11  and  C_12
REMARK                            x       y       z     vdW  Elec       q    Type
REMARK                         _______ _______ _______ _____ _____    ______ ____
ROOT
ATOM      1  C   UNL     1     -68.350 -49.818 -55.539  0.00  0.00    +0.000 A 
ATOM      2  C   UNL     1     -67.924 -48.564 -55.814  0.00  0.00    +0.000 A 
ATOM      3  N   UNL     1     -66.721 -48.059 -55.361  0.00  0.00    +0.000 N 
ATOM      4  C   UNL     1     -65.908 -48.739 -54.435  0.00  0.00    +0.000 A 
ATOM      5  C   UNL     1     -64.729 -48.156 -53.938  0.00  0.00    +0.000 A 
ATOM      6 BR   UNL     1     -64.232 -46.389 -54.434  0.00  0.00    +0.000 Br
ATOM      7  C   UNL     1     -63.895 -48.849 -53.062  0.00  0.00    +0.000 A 
ATOM      8  C   UNL     1     -64.227 -50.142 -52.679  0.00  0.00    +0.000 A 
ATOM      9  C   UNL     1     -65.384 -50.758 -53.177  0.00  0.00    +0.000 A 
ATOM     10 CL   UNL     1     -65.664 -52.363 -52.597  0.00  0.00    +0.000 Cl
ATOM     11  C   UNL     1     -66.224 -50.059 -54.069  0.00  0.00    +0.000 A 
ATOM     12  C   UNL     1     -67.469 -50.639 -54.631  0.00  0.00    +0.000 A 
ATOM     13  O   UNL     1     -67.804 -51.772 -54.328  0.00  0.00    +0.000 OA
ATOM     14  H   UNL     1     -66.659 -47.041 -55.322  0.00  0.00    +0.000 HD
ENDROOT
BRANCH   1  16
ATOM     15  C   UNL     1     -70.907 -50.241 -55.216  0.00  0.00    +0.000 C 
ATOM     16  C   UNL     1     -69.650 -50.414 -56.037  0.00  0.00    +0.000 C 
ATOM     17  O   UNL     1     -69.708 -51.045 -57.094  0.00  0.00    +0.000 OA
ENDBRANCH   1  16
BRANCH   2  18
ATOM     18  S   UNL     1     -68.996 -47.360 -56.666  0.00  0.00    +0.000 S 
ATOM     19  O   UNL     1     -68.247 -46.062 -56.524  0.00  0.00    +0.000 OA
BRANCH  18  20
ATOM     20  C   UNL     1     -68.748 -47.899 -58.397  0.00  0.00    +0.000 C 
BRANCH  20  21
ATOM     21  C   UNL     1     -67.479 -47.372 -58.987  0.00  0.00    +0.000 A 
ATOM     22  C   UNL     1     -66.170 -47.921 -58.988  0.00  0.00    +0.000 A 
ATOM     23  C   UNL     1     -65.410 -47.015 -59.689  0.00  0.00    +0.000 A 
ATOM     24  C   UNL     1     -63.981 -46.910 -60.037  0.00  0.00    +0.000 C 
ATOM     25  O   UNL     1     -66.214 -46.007 -60.119  0.00  0.00    +0.000 OA
ATOM     26  N   UNL     1     -67.510 -46.229 -59.689  0.00  0.00    +0.000 NA
ENDBRANCH  20  21
ENDBRANCH  18  20
ENDBRANCH   2  18
TORSDOF 4
