REMARK VINA RESULT:    -6.089      3.239      4.633
REMARK INTER + INTRA:          -8.785
REMARK INTER:                  -7.972
REMARK INTRA:                  -0.813
REMARK UNBOUND:                -0.917
REMARK  Name = 
REMARK  6 active torsions:
REMARK  status: ('A' for Active; 'I' for Inactive)
REMARK    1  A    between atoms: C_1  and  C_2
REMARK    2  A    between atoms: C_4  and  C_5
REMARK    3  A    between atoms: C_5  and  S_6
REMARK    4  A    between atoms: S_6  and  C_8
REMARK    5  A    between atoms: C_20  and  C_21
REMARK    6  A    between atoms: C_21  and  C_23
REMARK                            x       y       z     vdW  Elec       q    Type
REMARK                         _______ _______ _______ _____ _____    ______ ____
ROOT
ATOM      1  C   UNL     1     -55.077 -42.882 -79.835  0.00  0.00    +0.000 A 
ATOM      2  N   UNL     1     -55.102 -43.523 -78.581  0.00  0.00    +0.000 N 
ATOM      3  C   UNL     1     -54.245 -43.094 -77.532  0.00  0.00    +0.000 A 
ATOM      4  C   UNL     1     -54.473 -43.403 -76.178  0.00  0.00    +0.000 A 
ATOM      5 BR   UNL     1     -56.064 -44.279 -75.629  0.00  0.00    +0.000 Br
ATOM      6  C   UNL     1     -53.545 -43.054 -75.187  0.00  0.00    +0.000 A 
ATOM      7  C   UNL     1     -52.382 -42.361 -75.542  0.00  0.00    +0.000 A 
ATOM      8  C   UNL     1     -52.134 -42.041 -76.877  0.00  0.00    +0.000 A 
ATOM      9 CL   UNL     1     -50.708 -41.123 -77.201  0.00  0.00    +0.000 Cl
ATOM     10  C   UNL     1     -53.054 -42.428 -77.863  0.00  0.00    +0.000 A 
ATOM     11  C   UNL     1     -52.837 -42.210 -79.307  0.00  0.00    +0.000 A 
ATOM     12  O   UNL     1     -51.714 -42.194 -79.795  0.00  0.00    +0.000 OA
ATOM     13  C   UNL     1     -54.044 -42.086 -80.188  0.00  0.00    +0.000 A 
ATOM     14  H   UNL     1     -56.060 -43.737 -78.272  0.00  0.00    +0.000 HD
ENDROOT
BRANCH   1  15
ATOM     15  S   UNL     1     -56.697 -42.881 -80.648  0.00  0.00    +0.000 S 
ATOM     16  O   UNL     1     -56.400 -42.454 -82.060  0.00  0.00    +0.000 OA
BRANCH  15  17
ATOM     17  C   UNL     1     -57.749 -41.602 -79.903  0.00  0.00    +0.000 C 
BRANCH  17  21
ATOM     18  C   UNL     1     -57.673 -40.550 -74.892  0.00  0.00    +0.000 C 
ATOM     19  C   UNL     1     -57.882 -40.948 -76.297  0.00  0.00    +0.000 A 
ATOM     20  C   UNL     1     -57.216 -40.716 -77.477  0.00  0.00    +0.000 A 
ATOM     21  C   UNL     1     -57.915 -41.481 -78.436  0.00  0.00    +0.000 A 
ATOM     22  N   UNL     1     -58.980 -42.080 -77.875  0.00  0.00    +0.000 NA
ATOM     23  O   UNL     1     -58.954 -41.744 -76.538  0.00  0.00    +0.000 OA
ENDBRANCH  17  21
ENDBRANCH  15  17
ENDBRANCH   1  15
BRANCH  13  24
ATOM     24  C   UNL     1     -53.946 -40.984 -81.188  0.00  0.00    +0.000 C 
ATOM     25  O   UNL     1     -54.093 -39.823 -80.846  0.00  0.00    +0.000 OA
BRANCH  24  26
ATOM     26  C   UNL     1     -53.620 -41.319 -82.587  0.00  0.00    +0.000 C 
ATOM     27  C   UNL     1     -53.040 -42.673 -82.908  0.00  0.00    +0.000 C 
ATOM     28  C   UNL     1     -52.187 -41.449 -83.047  0.00  0.00    +0.000 C 
ENDBRANCH  24  26
ENDBRANCH  13  24
TORSDOF 5
