REMARK VINA RESULT:    -6.638     12.392     13.754
REMARK INTER + INTRA:          -9.620
REMARK INTER:                  -8.707
REMARK INTRA:                  -0.913
REMARK UNBOUND:                -1.042
REMARK  Name = 
REMARK  8 active torsions:
REMARK  status: ('A' for Active; 'I' for Inactive)
REMARK    1  A    between atoms: C_1  and  C_2
REMARK    2  A    between atoms: C_4  and  C_5
REMARK    3  A    between atoms: C_5  and  S_6
REMARK    4  A    between atoms: S_6  and  C_8
REMARK    5  A    between atoms: C_20  and  C_21
REMARK    6  A    between atoms: C_21  and  C_23
REMARK    7  A    between atoms: C_23  and  C_24
REMARK    8  A    between atoms: C_23  and  C_25
REMARK                            x       y       z     vdW  Elec       q    Type
REMARK                         _______ _______ _______ _____ _____    ______ ____
ROOT
ATOM      1  C   UNL     1     -55.653 -42.680 -76.819  0.00  0.00    +0.000 A 
ATOM      2  N   UNL     1     -54.325 -42.975 -76.529  0.00  0.00    +0.000 N 
ATOM      3  C   UNL     1     -53.355 -41.963 -76.395  0.00  0.00    +0.000 A 
ATOM      4  C   UNL     1     -52.142 -42.173 -75.711  0.00  0.00    +0.000 A 
ATOM      5 BR   UNL     1     -51.813 -43.795 -74.785  0.00  0.00    +0.000 Br
ATOM      6  C   UNL     1     -51.164 -41.176 -75.660  0.00  0.00    +0.000 A 
ATOM      7  C   UNL     1     -51.386 -39.953 -76.286  0.00  0.00    +0.000 A 
ATOM      8  C   UNL     1     -52.594 -39.720 -76.968  0.00  0.00    +0.000 A 
ATOM      9 CL   UNL     1     -52.783 -38.142 -77.643  0.00  0.00    +0.000 Cl
ATOM     10  C   UNL     1     -53.578 -40.728 -77.026  0.00  0.00    +0.000 A 
ATOM     11  C   UNL     1     -54.870 -40.593 -77.747  0.00  0.00    +0.000 A 
ATOM     12  O   UNL     1     -54.978 -39.792 -78.670  0.00  0.00    +0.000 OA
ATOM     13  C   UNL     1     -56.036 -41.484 -77.326  0.00  0.00    +0.000 A 
ATOM     14  H   UNL     1     -54.203 -43.800 -75.926  0.00  0.00    +0.000 HD
ENDROOT
BRANCH   1  15
ATOM     15  S   UNL     1     -56.779 -44.000 -76.230  0.00  0.00    +0.000 S 
ATOM     16  O   UNL     1     -57.608 -43.321 -75.173  0.00  0.00    +0.000 OA
BRANCH  15  17
ATOM     17  C   UNL     1     -55.652 -45.179 -75.413  0.00  0.00    +0.000 C 
BRANCH  17  21
ATOM     18  C   UNL     1     -55.611 -49.340 -78.493  0.00  0.00    +0.000 C 
ATOM     19  C   UNL     1     -55.513 -48.266 -77.480  0.00  0.00    +0.000 A 
ATOM     20  C   UNL     1     -55.857 -46.935 -77.435  0.00  0.00    +0.000 A 
ATOM     21  C   UNL     1     -55.505 -46.504 -76.124  0.00  0.00    +0.000 A 
ATOM     22  N   UNL     1     -54.961 -47.526 -75.440  0.00  0.00    +0.000 NA
ATOM     23  O   UNL     1     -54.972 -48.619 -76.286  0.00  0.00    +0.000 OA
ENDBRANCH  17  21
ENDBRANCH  15  17
ENDBRANCH   1  15
BRANCH  13  24
ATOM     24  C   UNL     1     -57.425 -40.908 -77.492  0.00  0.00    +0.000 C 
ATOM     25  O   UNL     1     -57.794 -39.971 -76.785  0.00  0.00    +0.000 OA
BRANCH  24  26
ATOM     26  C   UNL     1     -58.404 -41.526 -78.490  0.00  0.00    +0.000 C 
ATOM     27  C   UNL     1     -59.610 -40.623 -78.733  0.00  0.00    +0.000 C 
ATOM     28  C   UNL     1     -57.724 -41.872 -79.818  0.00  0.00    +0.000 C 
ENDBRANCH  24  26
ENDBRANCH  13  24
TORSDOF 5
