REMARK VINA RESULT:    -6.221     12.757     14.530
REMARK INTER + INTRA:          -8.718
REMARK INTER:                  -7.864
REMARK INTRA:                  -0.854
REMARK UNBOUND:                -1.042
REMARK  Name = 
REMARK  6 active torsions:
REMARK  status: ('A' for Active; 'I' for Inactive)
REMARK    1  A    between atoms: C_1  and  C_2
REMARK    2  A    between atoms: C_2  and  C_4
REMARK    3  A    between atoms: C_5  and  S_6
REMARK    4  A    between atoms: S_6  and  C_8
REMARK    5  A    between atoms: C_8  and  C_9
REMARK    6  A    between atoms: C_11  and  C_12
REMARK                            x       y       z     vdW  Elec       q    Type
REMARK                         _______ _______ _______ _____ _____    ______ ____
ROOT
ATOM      1  C   UNL     1     -57.481 -40.640 -62.462  0.00  0.00    +0.000 A 
ATOM      2  C   UNL     1     -56.525 -41.467 -62.941  0.00  0.00    +0.000 A 
ATOM      3  N   UNL     1     -55.352 -41.020 -63.515  0.00  0.00    +0.000 N 
ATOM      4  C   UNL     1     -55.087 -39.663 -63.750  0.00  0.00    +0.000 A 
ATOM      5  C   UNL     1     -53.868 -39.256 -64.329  0.00  0.00    +0.000 A 
ATOM      6 BR   UNL     1     -52.578 -40.539 -64.883  0.00  0.00    +0.000 Br
ATOM      7  C   UNL     1     -53.571 -37.910 -64.510  0.00  0.00    +0.000 A 
ATOM      8  C   UNL     1     -54.488 -36.943 -64.106  0.00  0.00    +0.000 A 
ATOM      9  C   UNL     1     -55.698 -37.319 -63.509  0.00  0.00    +0.000 A 
ATOM     10 CL   UNL     1     -56.738 -36.009 -63.073  0.00  0.00    +0.000 Cl
ATOM     11  C   UNL     1     -55.992 -38.684 -63.309  0.00  0.00    +0.000 A 
ATOM     12  C   UNL     1     -57.249 -39.166 -62.672  0.00  0.00    +0.000 A 
ATOM     13  O   UNL     1     -58.118 -38.365 -62.350  0.00  0.00    +0.000 OA
ATOM     14  H   UNL     1     -54.872 -41.681 -64.126  0.00  0.00    +0.000 HD
ENDROOT
BRANCH   1  16
ATOM     15  C   UNL     1     -58.728 -41.336 -60.287  0.00  0.00    +0.000 C 
ATOM     16  C   UNL     1     -58.746 -41.096 -61.780  0.00  0.00    +0.000 C 
ATOM     17  O   UNL     1     -59.783 -41.302 -62.408  0.00  0.00    +0.000 OA
ENDBRANCH   1  16
BRANCH   2  18
ATOM     18  S   UNL     1     -56.776 -43.272 -62.998  0.00  0.00    +0.000 S 
ATOM     19  O   UNL     1     -57.112 -43.536 -64.443  0.00  0.00    +0.000 OA
BRANCH  18  20
ATOM     20  C   UNL     1     -55.045 -43.816 -62.777  0.00  0.00    +0.000 C 
BRANCH  20  21
ATOM     21  C   UNL     1     -54.692 -44.053 -61.346  0.00  0.00    +0.000 A 
ATOM     22  C   UNL     1     -54.986 -43.281 -60.191  0.00  0.00    +0.000 A 
ATOM     23  C   UNL     1     -54.449 -43.995 -59.150  0.00  0.00    +0.000 A 
ATOM     24  C   UNL     1     -54.348 -43.783 -57.694  0.00  0.00    +0.000 C 
ATOM     25  O   UNL     1     -53.900 -45.140 -59.634  0.00  0.00    +0.000 OA
ATOM     26  N   UNL     1     -54.057 -45.185 -61.007  0.00  0.00    +0.000 NA
ENDBRANCH  20  21
ENDBRANCH  18  20
ENDBRANCH   2  18
TORSDOF 4
