REMARK VINA RESULT:    -6.427     13.110     14.454
REMARK INTER + INTRA:          -8.611
REMARK INTER:                  -7.937
REMARK INTRA:                  -0.673
REMARK UNBOUND:                -0.681
REMARK  Name = 
REMARK  6 active torsions:
REMARK  status: ('A' for Active; 'I' for Inactive)
REMARK    1  A    between atoms: C_1  and  C_2
REMARK    2  A    between atoms: C_2  and  C_4
REMARK    3  A    between atoms: C_5  and  S_6
REMARK    4  A    between atoms: S_6  and  C_8
REMARK    5  A    between atoms: C_8  and  C_9
REMARK    6  A    between atoms: C_11  and  C_12
REMARK                            x       y       z     vdW  Elec       q    Type
REMARK                         _______ _______ _______ _____ _____    ______ ____
ROOT
ATOM      1  C   UNL     1     -56.683 -42.841 -76.503  0.00  0.00    +0.000 A 
ATOM      2  C   UNL     1     -55.661 -43.714 -76.361  0.00  0.00    +0.000 A 
ATOM      3  N   UNL     1     -55.730 -45.036 -76.753  0.00  0.00    +0.000 N 
ATOM      4  C   UNL     1     -56.916 -45.634 -77.211  0.00  0.00    +0.000 A 
ATOM      5  C   UNL     1     -56.944 -46.990 -77.583  0.00  0.00    +0.000 A 
ATOM      6 BR   UNL     1     -55.394 -48.081 -77.422  0.00  0.00    +0.000 Br
ATOM      7  C   UNL     1     -58.103 -47.575 -78.087  0.00  0.00    +0.000 A 
ATOM      8  C   UNL     1     -59.254 -46.806 -78.227  0.00  0.00    +0.000 A 
ATOM      9  C   UNL     1     -59.249 -45.448 -77.886  0.00  0.00    +0.000 A 
ATOM     10 CL   UNL     1     -60.757 -44.629 -78.106  0.00  0.00    +0.000 Cl
ATOM     11  C   UNL     1     -58.069 -44.850 -77.398  0.00  0.00    +0.000 A 
ATOM     12  C   UNL     1     -57.973 -43.410 -77.029  0.00  0.00    +0.000 A 
ATOM     13  O   UNL     1     -58.964 -42.691 -77.114  0.00  0.00    +0.000 OA
ATOM     14  H   UNL     1     -55.070 -45.666 -76.296  0.00  0.00    +0.000 HD
ENDROOT
BRANCH   1  16
ATOM     15  C   UNL     1     -56.167 -40.379 -77.175  0.00  0.00    +0.000 C 
ATOM     16  C   UNL     1     -56.619 -41.382 -76.134  0.00  0.00    +0.000 C 
ATOM     17  O   UNL     1     -56.912 -40.985 -75.006  0.00  0.00    +0.000 OA
ENDBRANCH   1  16
BRANCH   2  18
ATOM     18  S   UNL     1     -54.138 -43.258 -75.462  0.00  0.00    +0.000 S 
ATOM     19  O   UNL     1     -53.494 -44.587 -75.172  0.00  0.00    +0.000 OA
BRANCH  18  20
ATOM     20  C   UNL     1     -53.182 -42.530 -76.841  0.00  0.00    +0.000 C 
BRANCH  20  21
ATOM     21  C   UNL     1     -52.060 -41.686 -76.334  0.00  0.00    +0.000 A 
ATOM     22  C   UNL     1     -51.795 -40.311 -76.568  0.00  0.00    +0.000 A 
ATOM     23  C   UNL     1     -50.665 -40.046 -75.833  0.00  0.00    +0.000 A 
ATOM     24  C   UNL     1     -49.826 -38.852 -75.616  0.00  0.00    +0.000 C 
ATOM     25  O   UNL     1     -50.281 -41.179 -75.186  0.00  0.00    +0.000 OA
ATOM     26  N   UNL     1     -51.157 -42.207 -75.490  0.00  0.00    +0.000 NA
ENDBRANCH  20  21
ENDBRANCH  18  20
ENDBRANCH   2  18
TORSDOF 4
