REMARK VINA RESULT:    -5.200     12.028     14.591
REMARK INTER + INTRA:          -7.642
REMARK INTER:                  -6.653
REMARK INTRA:                  -0.988
REMARK UNBOUND:                -0.922
REMARK  Name = 
REMARK  6 active torsions:
REMARK  status: ('A' for Active; 'I' for Inactive)
REMARK    1  A    between atoms: C_1  and  C_2
REMARK    2  A    between atoms: C_4  and  C_5
REMARK    3  A    between atoms: C_5  and  S_6
REMARK    4  A    between atoms: S_6  and  C_8
REMARK    5  A    between atoms: C_20  and  C_21
REMARK    6  A    between atoms: C_21  and  C_23
REMARK                            x       y       z     vdW  Elec       q    Type
REMARK                         _______ _______ _______ _____ _____    ______ ____
ROOT
ATOM      1  C   UNL     1     -67.288 -40.452 -68.667  0.00  0.00    +0.000 A 
ATOM      2  N   UNL     1     -66.194 -40.168 -69.507  0.00  0.00    +0.000 N 
ATOM      3  C   UNL     1     -64.863 -40.406 -69.067  0.00  0.00    +0.000 A 
ATOM      4  C   UNL     1     -63.772 -40.521 -69.948  0.00  0.00    +0.000 A 
ATOM      5 BR   UNL     1     -64.030 -40.546 -71.827  0.00  0.00    +0.000 Br
ATOM      6  C   UNL     1     -62.461 -40.646 -69.467  0.00  0.00    +0.000 A 
ATOM      7  C   UNL     1     -62.231 -40.684 -68.087  0.00  0.00    +0.000 A 
ATOM      8  C   UNL     1     -63.297 -40.573 -67.194  0.00  0.00    +0.000 A 
ATOM      9 CL   UNL     1     -62.915 -40.704 -65.515  0.00  0.00    +0.000 Cl
ATOM     10  C   UNL     1     -64.600 -40.413 -67.688  0.00  0.00    +0.000 A 
ATOM     11  C   UNL     1     -65.777 -40.203 -66.822  0.00  0.00    +0.000 A 
ATOM     12  O   UNL     1     -65.689 -39.634 -65.741  0.00  0.00    +0.000 OA
ATOM     13  C   UNL     1     -67.116 -40.636 -67.339  0.00  0.00    +0.000 A 
ATOM     14  H   UNL     1     -66.366 -40.453 -70.480  0.00  0.00    +0.000 HD
ENDROOT
BRANCH   1  15
ATOM     15  S   UNL     1     -68.760 -40.968 -69.591  0.00  0.00    +0.000 S 
ATOM     16  O   UNL     1     -68.224 -41.880 -70.659  0.00  0.00    +0.000 OA
BRANCH  15  17
ATOM     17  C   UNL     1     -69.489 -39.526 -70.422  0.00  0.00    +0.000 C 
BRANCH  17  21
ATOM     18  C   UNL     1     -71.061 -35.990 -67.070  0.00  0.00    +0.000 C 
ATOM     19  C   UNL     1     -70.595 -36.848 -68.175  0.00  0.00    +0.000 A 
ATOM     20  C   UNL     1     -70.244 -38.172 -68.289  0.00  0.00    +0.000 A 
ATOM     21  C   UNL     1     -69.984 -38.353 -69.665  0.00  0.00    +0.000 A 
ATOM     22  N   UNL     1     -70.104 -37.188 -70.325  0.00  0.00    +0.000 NA
ATOM     23  O   UNL     1     -70.488 -36.251 -69.389  0.00  0.00    +0.000 OA
ENDBRANCH  17  21
ENDBRANCH  15  17
ENDBRANCH   1  15
BRANCH  13  24
ATOM     24  C   UNL     1     -67.947 -41.349 -66.327  0.00  0.00    +0.000 C 
ATOM     25  O   UNL     1     -67.733 -42.519 -66.063  0.00  0.00    +0.000 OA
BRANCH  24  26
ATOM     26  C   UNL     1     -69.001 -40.600 -65.617  0.00  0.00    +0.000 C 
ATOM     27  C   UNL     1     -69.791 -41.282 -64.530  0.00  0.00    +0.000 C 
ATOM     28  C   UNL     1     -70.462 -40.922 -65.820  0.00  0.00    +0.000 C 
ENDBRANCH  24  26
ENDBRANCH  13  24
TORSDOF 5
