=
 OpenBabel09162514323D

 28 30  0  0  0  0  0  0  0  0999 V2000
  -55.6860  -41.5110  -63.4920 C   0  0  0  0  0  0  0  0  0  0  0  0
  -54.3810  -41.1000  -63.7440 N   0  0  0  0  0  0  0  0  0  0  0  0
  -53.3210  -42.0240  -63.8410 C   0  0  0  0  0  0  0  0  0  0  0  0
  -52.1120  -41.7110  -64.4890 C   0  0  0  0  0  0  0  0  0  0  0  0
  -51.8990  -40.0710  -65.4190 Br  0  0  0  0  0  0  0  0  0  0  0  0
  -51.0480  -42.6170  -64.5020 C   0  0  0  0  0  3  0  0  0  0  0  0
  -51.1790  -43.8510  -63.8730 C   0  0  0  0  0  3  0  0  0  0  0  0
  -52.3820  -44.1870  -63.2250 C   0  0  0  0  0  0  0  0  0  0  0  0
  -52.4520  -45.7710  -62.5420 Cl  0  0  0  0  0  0  0  0  0  0  0  0
  -53.4530  -43.2690  -63.2050 C   0  0  0  0  0  0  0  0  0  0  0  0
  -54.7500  -43.5140  -62.5230 C   0  0  0  0  0  0  0  0  0  0  0  0
  -54.8150  -44.3160  -61.5960 O   0  0  0  0  0  0  0  0  0  0  0  0
  -55.9760  -42.7340  -62.9860 C   0  0  0  0  0  0  0  0  0  0  0  0
  -54.3140  -40.2710  -64.3510 H   0  0  0  0  0  0  0  0  0  0  0  0
  -56.9060  -40.2990  -64.1250 S   0  0  2  0  0  0  0  0  0  0  0  0
  -57.6260  -39.8340  -62.8890 O   0  0  0  0  0  0  0  0  0  0  0  0
  -58.0500  -41.3300  -65.1060 C   0  0  0  0  0  2  0  0  0  0  0  0
  -55.4460  -42.4640  -69.4340 C   0  0  0  0  0  1  0  0  0  0  0  0
  -56.3530  -42.2290  -68.2890 C   0  0  0  0  0  0  0  0  0  0  0  0
  -56.2000  -41.7520  -67.0070 C   0  0  0  0  0  3  0  0  0  0  0  0
  -57.5120  -41.7610  -66.4500 C   0  0  0  0  0  0  0  0  0  0  0  0
  -58.3860  -42.2390  -67.3520 N   0  0  0  0  0  0  0  0  0  0  0  0
  -57.6620  -42.5240  -68.4940 O   0  0  0  0  0  0  0  0  0  0  0  0
  -57.3130  -43.4290  -62.8570 C   0  0  0  0  0  0  0  0  0  0  0  0
  -57.7130  -44.1730  -63.7530 O   0  0  0  0  0  0  0  0  0  0  0  0
  -58.2090  -43.1650  -61.6460 C   0  0  0  0  0  3  0  0  0  0  0  0
  -57.4870  -42.3500  -60.5760 C   0  0  0  0  0  1  0  0  0  0  0  0
  -59.5190  -42.4780  -62.0430 C   0  0  0  0  0  1  0  0  0  0  0  0
  1 13  2  0  0  0  0
  2  1  1  0  0  0  0
  3  2  1  0  0  0  0
  3 10  1  0  0  0  0
  4  3  2  0  0  0  0
  5  4  1  0  0  0  0
  6  4  1  0  0  0  0
  6  7  2  0  0  0  0
  7  8  1  0  0  0  0
  8 10  2  0  0  0  0
  8  9  1  0  0  0  0
 10 11  1  0  0  0  0
 11 12  2  0  0  0  0
 13 24  1  0  0  0  0
 13 11  1  0  0  0  0
 14  2  1  0  0  0  0
 15  1  1  0  0  0  0
 15 16  2  1  0  0  0
 17 15  1  0  0  0  0
 18 19  1  0  0  0  0
 19 20  2  0  0  0  0
 20 21  1  0  0  0  0
 21 17  1  0  0  0  0
 22 21  2  0  0  0  0
 23 19  1  0  0  0  0
 23 22  1  0  0  0  0
 24 26  1  0  0  0  0
 25 24  2  0  0  0  0
 26 27  1  0  0  0  0
 28 26  1  0  0  0  0
M  END
>  <MODEL>
1

>  <REMARK>
 VINA RESULT:    -7.701      0.000      0.000
 INTER + INTRA:         -10.636
 INTER:                  -9.952
 INTRA:                  -0.684
 UNBOUND:                -0.684
  Name = 
  8 active torsions:
  status: ('A' for Active; 'I' for Inactive)
    1  A    between atoms: C_1  and  C_2
    2  A    between atoms: C_4  and  C_5
    3  A    between atoms: C_5  and  S_6
    4  A    between atoms: S_6  and  C_8
    5  A    between atoms: C_20  and  C_21
    6  A    between atoms: C_21  and  C_23
    7  A    between atoms: C_23  and  C_24
    8  A    between atoms: C_23  and  C_25
                            x       y       z     vdW  Elec       q    Type
                         _______ _______ _______ _____ _____    ______ ____

>  <TORSDO>
F 5

$$$$
