REMARK VINA RESULT:    -6.634      3.996      5.771
REMARK INTER + INTRA:          -8.927
REMARK INTER:                  -7.947
REMARK INTRA:                  -0.980
REMARK UNBOUND:                -0.741
REMARK  Name = 
REMARK  5 active torsions:
REMARK  status: ('A' for Active; 'I' for Inactive)
REMARK    1  A    between atoms: C_1  and  C_2
REMARK    2  A    between atoms: C_2  and  C_4
REMARK    3  A    between atoms: C_5  and  S_6
REMARK    4  A    between atoms: S_6  and  C_8
REMARK    5  A    between atoms: C_8  and  C_9
REMARK                            x       y       z     vdW  Elec       q    Type
REMARK                         _______ _______ _______ _____ _____    ______ ____
ROOT
ATOM      1  C   UNL     1     -53.501 -41.049 -78.237  0.00  0.00    +0.000 A 
ATOM      2  C   UNL     1     -54.804 -41.403 -78.249  0.00  0.00    +0.000 A 
ATOM      3  N   UNL     1     -55.346 -42.302 -79.152  0.00  0.00    +0.000 N 
ATOM      4  C   UNL     1     -54.633 -42.713 -80.292  0.00  0.00    +0.000 A 
ATOM      5  C   UNL     1     -55.265 -43.439 -81.316  0.00  0.00    +0.000 A 
ATOM      6 BR   UNL     1     -57.119 -43.841 -81.228  0.00  0.00    +0.000 Br
ATOM      7  C   UNL     1     -54.548 -43.869 -82.428  0.00  0.00    +0.000 A 
ATOM      8  C   UNL     1     -53.188 -43.581 -82.526  0.00  0.00    +0.000 A 
ATOM      9  C   UNL     1     -52.534 -42.885 -81.503  0.00  0.00    +0.000 A 
ATOM     10 CL   UNL     1     -50.863 -42.534 -81.772  0.00  0.00    +0.000 Cl
ATOM     11  C   UNL     1     -53.249 -42.474 -80.367  0.00  0.00    +0.000 A 
ATOM     12  C   UNL     1     -52.625 -41.792 -79.199  0.00  0.00    +0.000 A 
ATOM     13  O   UNL     1     -51.418 -41.861 -78.996  0.00  0.00    +0.000 OA
ATOM     14  H   UNL     1     -56.350 -42.190 -79.300  0.00  0.00    +0.000 HD
ENDROOT
BRANCH   1  16
ATOM     15  C   UNL     1     -53.042 -38.541 -77.710  0.00  0.00    +0.000 C 
ATOM     16  C   UNL     1     -52.902 -40.000 -77.344  0.00  0.00    +0.000 C 
ATOM     17  O   UNL     1     -52.301 -40.306 -76.308  0.00  0.00    +0.000 OA
ENDBRANCH   1  16
BRANCH   2  18
ATOM     18  S   UNL     1     -56.004 -40.585 -77.168  0.00  0.00    +0.000 S 
ATOM     19  O   UNL     1     -57.333 -41.042 -77.704  0.00  0.00    +0.000 OA
BRANCH  18  20
ATOM     20  C   UNL     1     -55.737 -41.538 -75.627  0.00  0.00    +0.000 C 
BRANCH  20  21
ATOM     21  C   UNL     1     -55.231 -42.958 -75.734  0.00  0.00    +0.000 A 
ATOM     22  C   UNL     1     -53.933 -43.339 -75.382  0.00  0.00    +0.000 A 
ATOM     23  C   UNL     1     -53.545 -44.681 -75.434  0.00  0.00    +0.000 A 
ATOM     24  C   UNL     1     -54.456 -45.664 -75.814  0.00  0.00    +0.000 A 
ATOM     25  C   UNL     1     -55.761 -45.305 -76.138  0.00  0.00    +0.000 A 
ATOM     26  C   UNL     1     -56.147 -43.965 -76.094  0.00  0.00    +0.000 A 
ENDBRANCH  20  21
ENDBRANCH  18  20
ENDBRANCH   2  18
TORSDOF 4
