REMARK VINA RESULT:    -5.126      4.000      6.568
REMARK INTER + INTRA:          -7.175
REMARK INTER:                  -6.049
REMARK INTRA:                  -1.126
REMARK UNBOUND:                -0.850
REMARK  Name = 
REMARK  6 active torsions:
REMARK  status: ('A' for Active; 'I' for Inactive)
REMARK    1  A    between atoms: C_1  and  C_2
REMARK    2  A    between atoms: C_2  and  C_4
REMARK    3  A    between atoms: C_5  and  S_6
REMARK    4  A    between atoms: S_6  and  C_8
REMARK    5  A    between atoms: C_8  and  C_9
REMARK    6  A    between atoms: C_11  and  C_12
REMARK                            x       y       z     vdW  Elec       q    Type
REMARK                         _______ _______ _______ _____ _____    ______ ____
ROOT
ATOM      1  C   UNL     1     -55.267 -37.284 -62.886  0.00  0.00    +0.000 A 
ATOM      2  C   UNL     1     -56.264 -37.999 -62.319  0.00  0.00    +0.000 A 
ATOM      3  N   UNL     1     -56.376 -39.368 -62.442  0.00  0.00    +0.000 N 
ATOM      4  C   UNL     1     -55.495 -40.147 -63.210  0.00  0.00    +0.000 A 
ATOM      5  C   UNL     1     -55.590 -41.548 -63.222  0.00  0.00    +0.000 A 
ATOM      6 BR   UNL     1     -56.960 -42.442 -62.248  0.00  0.00    +0.000 Br
ATOM      7  C   UNL     1     -54.684 -42.327 -63.936  0.00  0.00    +0.000 A 
ATOM      8  C   UNL     1     -53.660 -41.708 -64.646  0.00  0.00    +0.000 A 
ATOM      9  C   UNL     1     -53.525 -40.314 -64.629  0.00  0.00    +0.000 A 
ATOM     10 CL   UNL     1     -52.197 -39.691 -65.547  0.00  0.00    +0.000 Cl
ATOM     11  C   UNL     1     -54.429 -39.529 -63.887  0.00  0.00    +0.000 A 
ATOM     12  C   UNL     1     -54.341 -38.048 -63.797  0.00  0.00    +0.000 A 
ATOM     13  O   UNL     1     -53.546 -37.428 -64.496  0.00  0.00    +0.000 OA
ATOM     14  H   UNL     1     -57.298 -39.767 -62.268  0.00  0.00    +0.000 HD
ENDROOT
BRANCH   1  16
ATOM     15  C   UNL     1     -54.076 -35.361 -61.624  0.00  0.00    +0.000 C 
ATOM     16  C   UNL     1     -55.047 -35.809 -62.696  0.00  0.00    +0.000 C 
ATOM     17  O   UNL     1     -55.659 -34.969 -63.353  0.00  0.00    +0.000 OA
ENDBRANCH   1  16
BRANCH   2  18
ATOM     18  S   UNL     1     -57.640 -37.173 -61.455  0.00  0.00    +0.000 S 
ATOM     19  O   UNL     1     -58.866 -37.822 -62.042  0.00  0.00    +0.000 OA
BRANCH  18  20
ATOM     20  C   UNL     1     -57.429 -37.905 -59.801  0.00  0.00    +0.000 C 
BRANCH  20  21
ATOM     21  C   UNL     1     -56.230 -37.366 -59.094  0.00  0.00    +0.000 A 
ATOM     22  C   UNL     1     -55.007 -38.018 -58.787  0.00  0.00    +0.000 A 
ATOM     23  C   UNL     1     -54.225 -37.040 -58.223  0.00  0.00    +0.000 A 
ATOM     24  C   UNL     1     -52.848 -36.992 -57.697  0.00  0.00    +0.000 C 
ATOM     25  O   UNL     1     -54.930 -35.878 -58.181  0.00  0.00    +0.000 OA
ATOM     26  N   UNL     1     -56.185 -36.076 -58.732  0.00  0.00    +0.000 NA
ENDBRANCH  20  21
ENDBRANCH  18  20
ENDBRANCH   2  18
TORSDOF 4
