REMARK VINA RESULT:    -5.190     11.488     12.897
REMARK INTER + INTRA:          -7.084
REMARK INTER:                  -6.466
REMARK INTRA:                  -0.618
REMARK UNBOUND:                -0.681
REMARK  Name = 
REMARK  6 active torsions:
REMARK  status: ('A' for Active; 'I' for Inactive)
REMARK    1  A    between atoms: C_1  and  C_2
REMARK    2  A    between atoms: C_2  and  C_4
REMARK    3  A    between atoms: C_5  and  S_6
REMARK    4  A    between atoms: S_6  and  C_8
REMARK    5  A    between atoms: C_8  and  C_9
REMARK    6  A    between atoms: C_11  and  C_12
REMARK                            x       y       z     vdW  Elec       q    Type
REMARK                         _______ _______ _______ _____ _____    ______ ____
ROOT
ATOM      1  C   UNL     1     -64.199 -41.473 -70.549  0.00  0.00    +0.000 A 
ATOM      2  C   UNL     1     -63.313 -41.861 -71.492  0.00  0.00    +0.000 A 
ATOM      3  N   UNL     1     -63.670 -42.551 -72.634  0.00  0.00    +0.000 N 
ATOM      4  C   UNL     1     -64.971 -43.033 -72.856  0.00  0.00    +0.000 A 
ATOM      5  C   UNL     1     -65.286 -43.746 -74.028  0.00  0.00    +0.000 A 
ATOM      6 BR   UNL     1     -63.951 -44.137 -75.324  0.00  0.00    +0.000 Br
ATOM      7  C   UNL     1     -66.585 -44.182 -74.278  0.00  0.00    +0.000 A 
ATOM      8  C   UNL     1     -67.590 -43.907 -73.357  0.00  0.00    +0.000 A 
ATOM      9  C   UNL     1     -67.310 -43.180 -72.193  0.00  0.00    +0.000 A 
ATOM     10 CL   UNL     1     -68.661 -42.927 -71.141  0.00  0.00    +0.000 Cl
ATOM     11  C   UNL     1     -66.000 -42.718 -71.951  0.00  0.00    +0.000 A 
ATOM     12  C   UNL     1     -65.621 -41.923 -70.749  0.00  0.00    +0.000 A 
ATOM     13  O   UNL     1     -66.464 -41.670 -69.894  0.00  0.00    +0.000 OA
ATOM     14  H   UNL     1     -62.923 -43.084 -73.079  0.00  0.00    +0.000 HD
ENDROOT
BRANCH   1  16
ATOM     15  C   UNL     1     -63.757 -39.168 -69.424  0.00  0.00    +0.000 C 
ATOM     16  C   UNL     1     -63.847 -40.676 -69.321  0.00  0.00    +0.000 C 
ATOM     17  O   UNL     1     -63.617 -41.217 -68.239  0.00  0.00    +0.000 OA
ENDBRANCH   1  16
BRANCH   2  18
ATOM     18  S   UNL     1     -61.515 -41.661 -71.248  0.00  0.00    +0.000 S 
ATOM     19  O   UNL     1     -61.230 -42.514 -70.041  0.00  0.00    +0.000 OA
BRANCH  18  20
ATOM     20  C   UNL     1     -60.908 -42.611 -72.688  0.00  0.00    +0.000 C 
BRANCH  20  21
ATOM     21  C   UNL     1     -59.563 -42.132 -73.124  0.00  0.00    +0.000 A 
ATOM     22  C   UNL     1     -58.934 -42.258 -74.391  0.00  0.00    +0.000 A 
ATOM     23  C   UNL     1     -57.732 -41.608 -74.245  0.00  0.00    +0.000 A 
ATOM     24  C   UNL     1     -56.576 -41.357 -75.128  0.00  0.00    +0.000 C 
ATOM     25  O   UNL     1     -57.647 -41.109 -72.983  0.00  0.00    +0.000 OA
ATOM     26  N   UNL     1     -58.795 -41.427 -72.280  0.00  0.00    +0.000 NA
ENDBRANCH  20  21
ENDBRANCH  18  20
ENDBRANCH   2  18
TORSDOF 4
