REMARK VINA RESULT:    -7.122     10.087     12.759
REMARK INTER + INTRA:         -10.384
REMARK INTER:                  -9.490
REMARK INTRA:                  -0.894
REMARK UNBOUND:                -1.180
REMARK  Name = 
REMARK  6 active torsions:
REMARK  status: ('A' for Active; 'I' for Inactive)
REMARK    1  A    between atoms: C_1  and  C_2
REMARK    2  A    between atoms: C_2  and  C_4
REMARK    3  A    between atoms: C_5  and  S_6
REMARK    4  A    between atoms: S_6  and  C_8
REMARK    5  A    between atoms: C_8  and  C_9
REMARK    6  A    between atoms: C_12  and  C_13
REMARK                            x       y       z     vdW  Elec       q    Type
REMARK                         _______ _______ _______ _____ _____    ______ ____
ROOT
ATOM      1  C   UNL     1     -56.118 -42.761 -62.360  0.00  0.00    +0.000 A 
ATOM      2  C   UNL     1     -55.918 -41.579 -62.979  0.00  0.00    +0.000 A 
ATOM      3  N   UNL     1     -54.740 -41.263 -63.626  0.00  0.00    +0.000 N 
ATOM      4  C   UNL     1     -53.612 -42.089 -63.639  0.00  0.00    +0.000 A 
ATOM      5  C   UNL     1     -52.444 -41.725 -64.334  0.00  0.00    +0.000 A 
ATOM      6 BR   UNL     1     -52.319 -40.062 -65.241  0.00  0.00    +0.000 Br
ATOM      7  C   UNL     1     -51.341 -42.578 -64.381  0.00  0.00    +0.000 A 
ATOM      8  C   UNL     1     -51.391 -43.807 -63.728  0.00  0.00    +0.000 A 
ATOM      9  C   UNL     1     -52.545 -44.196 -63.038  0.00  0.00    +0.000 A 
ATOM     10 CL   UNL     1     -52.457 -45.746 -62.276  0.00  0.00    +0.000 Cl
ATOM     11  C   UNL     1     -53.665 -43.344 -63.005  0.00  0.00    +0.000 A 
ATOM     12  C   UNL     1     -54.939 -43.696 -62.311  0.00  0.00    +0.000 A 
ATOM     13  O   UNL     1     -55.024 -44.730 -61.661  0.00  0.00    +0.000 OA
ATOM     14  H   UNL     1     -54.650 -40.288 -63.929  0.00  0.00    +0.000 HD
ENDROOT
BRANCH   1  16
ATOM     15  C   UNL     1     -58.301 -44.148 -62.457  0.00  0.00    +0.000 C 
ATOM     16  C   UNL     1     -57.408 -43.177 -61.716  0.00  0.00    +0.000 C 
ATOM     17  O   UNL     1     -57.769 -42.711 -60.636  0.00  0.00    +0.000 OA
ENDBRANCH   1  16
BRANCH   2  18
ATOM     18  S   UNL     1     -57.100 -40.196 -62.907  0.00  0.00    +0.000 S 
ATOM     19  O   UNL     1     -56.364 -39.076 -63.597  0.00  0.00    +0.000 OA
BRANCH  18  20
ATOM     20  C   UNL     1     -58.395 -40.795 -64.050  0.00  0.00    +0.000 C 
BRANCH  20  21
ATOM     21  C   UNL     1     -57.824 -41.451 -65.296  0.00  0.00    +0.000 A 
ATOM     22  C   UNL     1     -58.101 -42.793 -65.598  0.00  0.00    +0.000 A 
ATOM     23  C   UNL     1     -57.583 -43.395 -66.749  0.00  0.00    +0.000 A 
ATOM     24  C   UNL     1     -56.791 -42.658 -67.633  0.00  0.00    +0.000 A 
ATOM     25  C   UNL     1     -56.519 -41.315 -67.350  0.00  0.00    +0.000 A 
ATOM     26  C   UNL     1     -57.028 -40.718 -66.191  0.00  0.00    +0.000 A 
BRANCH  24  27
ATOM     27  C   UNL     1     -56.258 -43.275 -68.819  0.00  0.00    +0.000 C 
ATOM     28  N   UNL     1     -55.831 -43.768 -69.777  0.00  0.00    +0.000 NA
ENDBRANCH  24  27
ENDBRANCH  20  21
ENDBRANCH  18  20
ENDBRANCH   2  18
TORSDOF 5
