REMARK VINA RESULT:    -7.542      2.786      3.989
REMARK INTER + INTRA:         -10.547
REMARK INTER:                  -9.436
REMARK INTRA:                  -1.111
REMARK UNBOUND:                -0.800
REMARK  Name = 
REMARK  8 active torsions:
REMARK  status: ('A' for Active; 'I' for Inactive)
REMARK    1  A    between atoms: C_1  and  C_2
REMARK    2  A    between atoms: C_4  and  C_5
REMARK    3  A    between atoms: C_5  and  S_6
REMARK    4  A    between atoms: S_6  and  C_8
REMARK    5  A    between atoms: C_20  and  C_21
REMARK    6  A    between atoms: C_21  and  C_23
REMARK    7  A    between atoms: C_23  and  C_24
REMARK    8  A    between atoms: C_23  and  C_25
REMARK                            x       y       z     vdW  Elec       q    Type
REMARK                         _______ _______ _______ _____ _____    ______ ____
ROOT
ATOM      1  C   UNL     1     -55.363 -42.040 -62.979  0.00  0.00    +0.000 A 
ATOM      2  N   UNL     1     -54.602 -43.201 -63.066  0.00  0.00    +0.000 N 
ATOM      3  C   UNL     1     -53.242 -43.168 -63.434  0.00  0.00    +0.000 A 
ATOM      4  C   UNL     1     -52.359 -44.223 -63.135  0.00  0.00    +0.000 A 
ATOM      5 BR   UNL     1     -52.916 -45.688 -62.067  0.00  0.00    +0.000 Br
ATOM      6  C   UNL     1     -51.035 -44.199 -63.581  0.00  0.00    +0.000 A 
ATOM      7  C   UNL     1     -50.572 -43.120 -64.327  0.00  0.00    +0.000 A 
ATOM      8  C   UNL     1     -51.436 -42.052 -64.631  0.00  0.00    +0.000 A 
ATOM      9 CL   UNL     1     -50.731 -40.738 -65.501  0.00  0.00    +0.000 Cl
ATOM     10  C   UNL     1     -52.775 -42.079 -64.188  0.00  0.00    +0.000 A 
ATOM     11  C   UNL     1     -53.773 -41.020 -64.483  0.00  0.00    +0.000 A 
ATOM     12  O   UNL     1     -53.628 -40.293 -65.461  0.00  0.00    +0.000 OA
ATOM     13  C   UNL     1     -54.980 -40.877 -63.560  0.00  0.00    +0.000 A 
ATOM     14  H   UNL     1     -54.867 -43.926 -62.385  0.00  0.00    +0.000 HD
ENDROOT
BRANCH   1  15
ATOM     15  S   UNL     1     -56.775 -42.246 -61.830  0.00  0.00    +0.000 S 
ATOM     16  O   UNL     1     -56.180 -42.977 -60.657  0.00  0.00    +0.000 OA
BRANCH  15  17
ATOM     17  C   UNL     1     -57.879 -43.391 -62.724  0.00  0.00    +0.000 C 
BRANCH  17  21
ATOM     18  C   UNL     1     -58.264 -42.666 -67.836  0.00  0.00    +0.000 C 
ATOM     19  C   UNL     1     -58.296 -42.724 -66.358  0.00  0.00    +0.000 A 
ATOM     20  C   UNL     1     -57.739 -43.542 -65.402  0.00  0.00    +0.000 A 
ATOM     21  C   UNL     1     -58.164 -42.999 -64.155  0.00  0.00    +0.000 A 
ATOM     22  N   UNL     1     -58.949 -41.929 -64.369  0.00  0.00    +0.000 NA
ATOM     23  O   UNL     1     -59.025 -41.760 -65.738  0.00  0.00    +0.000 OA
ENDBRANCH  17  21
ENDBRANCH  15  17
ENDBRANCH   1  15
BRANCH  13  24
ATOM     24  C   UNL     1     -55.547 -39.485 -63.392  0.00  0.00    +0.000 C 
ATOM     25  O   UNL     1     -56.715 -39.251 -63.699  0.00  0.00    +0.000 OA
BRANCH  24  26
ATOM     26  C   UNL     1     -54.656 -38.343 -62.901  0.00  0.00    +0.000 C 
ATOM     27  C   UNL     1     -54.508 -37.248 -63.955  0.00  0.00    +0.000 C 
ATOM     28  C   UNL     1     -55.163 -37.747 -61.585  0.00  0.00    +0.000 C 
ENDBRANCH  24  26
ENDBRANCH  13  24
TORSDOF 5
