REMARK VINA RESULT:    -6.262     23.669     26.433
REMARK INTER + INTRA:          -8.462
REMARK INTER:                  -7.657
REMARK INTRA:                  -0.806
REMARK UNBOUND:                -0.736
REMARK  Name = 
REMARK  6 active torsions:
REMARK  status: ('A' for Active; 'I' for Inactive)
REMARK    1  A    between atoms: C_1  and  C_2
REMARK    2  A    between atoms: C_2  and  C_4
REMARK    3  A    between atoms: C_5  and  S_6
REMARK    4  A    between atoms: S_6  and  C_8
REMARK    5  A    between atoms: C_8  and  C_9
REMARK    6  A    between atoms: C_11  and  C_12
REMARK                            x       y       z     vdW  Elec       q    Type
REMARK                         _______ _______ _______ _____ _____    ______ ____
ROOT
ATOM      1  C   UNL     1     -68.779 -51.277 -55.569  0.00  0.00    +0.000 A 
ATOM      2  C   UNL     1     -67.963 -50.201 -55.637  0.00  0.00    +0.000 A 
ATOM      3  N   UNL     1     -66.751 -50.130 -54.972  0.00  0.00    +0.000 N 
ATOM      4  C   UNL     1     -66.409 -51.043 -53.958  0.00  0.00    +0.000 A 
ATOM      5  C   UNL     1     -65.292 -50.825 -53.132  0.00  0.00    +0.000 A 
ATOM      6 BR   UNL     1     -64.242 -49.253 -53.308  0.00  0.00    +0.000 Br
ATOM      7  C   UNL     1     -64.939 -51.748 -52.152  0.00  0.00    +0.000 A 
ATOM      8  C   UNL     1     -65.698 -52.906 -51.991  0.00  0.00    +0.000 A 
ATOM      9  C   UNL     1     -66.797 -53.157 -52.823  0.00  0.00    +0.000 A 
ATOM     10 CL   UNL     1     -67.697 -54.590 -52.480  0.00  0.00    +0.000 Cl
ATOM     11  C   UNL     1     -67.137 -52.238 -53.828  0.00  0.00    +0.000 A 
ATOM     12  C   UNL     1     -68.236 -52.454 -54.807  0.00  0.00    +0.000 A 
ATOM     13  O   UNL     1     -68.667 -53.579 -55.030  0.00  0.00    +0.000 OA
ATOM     14  H   UNL     1     -66.431 -49.174 -54.795  0.00  0.00    +0.000 HD
ENDROOT
BRANCH   1  16
ATOM     15  C   UNL     1     -71.366 -51.016 -55.370  0.00  0.00    +0.000 C 
ATOM     16  C   UNL     1     -70.142 -51.375 -56.193  0.00  0.00    +0.000 C 
ATOM     17  O   UNL     1     -70.279 -51.743 -57.357  0.00  0.00    +0.000 OA
ENDBRANCH   1  16
BRANCH   2  18
ATOM     18  S   UNL     1     -68.453 -48.672 -56.501  0.00  0.00    +0.000 S 
ATOM     19  O   UNL     1     -69.390 -48.011 -55.527  0.00  0.00    +0.000 OA
BRANCH  18  20
ATOM     20  C   UNL     1     -66.853 -47.782 -56.364  0.00  0.00    +0.000 C 
BRANCH  20  21
ATOM     21  C   UNL     1     -66.145 -47.571 -57.664  0.00  0.00    +0.000 A 
ATOM     22  C   UNL     1     -64.950 -46.867 -57.967  0.00  0.00    +0.000 A 
ATOM     23  C   UNL     1     -64.733 -47.108 -59.303  0.00  0.00    +0.000 A 
ATOM     24  C   UNL     1     -63.695 -46.715 -60.275  0.00  0.00    +0.000 C 
ATOM     25  O   UNL     1     -65.725 -47.905 -59.776  0.00  0.00    +0.000 OA
ATOM     26  N   UNL     1     -66.608 -48.201 -58.756  0.00  0.00    +0.000 NA
ENDBRANCH  20  21
ENDBRANCH  18  20
ENDBRANCH   2  18
TORSDOF 4
