REMARK VINA RESULT:    -5.958      6.256      8.289
REMARK INTER + INTRA:          -8.753
REMARK INTER:                  -7.813
REMARK INTRA:                  -0.940
REMARK UNBOUND:                -1.054
REMARK  Name = 
REMARK  8 active torsions:
REMARK  status: ('A' for Active; 'I' for Inactive)
REMARK    1  A    between atoms: C_1  and  C_2
REMARK    2  A    between atoms: C_4  and  C_5
REMARK    3  A    between atoms: C_5  and  S_6
REMARK    4  A    between atoms: S_6  and  C_8
REMARK    5  A    between atoms: C_20  and  C_21
REMARK    6  A    between atoms: C_21  and  C_23
REMARK    7  A    between atoms: C_23  and  C_24
REMARK    8  A    between atoms: C_23  and  C_25
REMARK                            x       y       z     vdW  Elec       q    Type
REMARK                         _______ _______ _______ _____ _____    ______ ____
ROOT
ATOM      1  C   UNL     1     -55.012 -41.264 -82.373  0.00  0.00    +0.000 A 
ATOM      2  N   UNL     1     -56.234 -40.677 -82.689  0.00  0.00    +0.000 N 
ATOM      3  C   UNL     1     -56.814 -40.820 -83.964  0.00  0.00    +0.000 A 
ATOM      4  C   UNL     1     -58.188 -40.612 -84.189  0.00  0.00    +0.000 A 
ATOM      5 BR   UNL     1     -59.375 -40.283 -82.746  0.00  0.00    +0.000 Br
ATOM      6  C   UNL     1     -58.724 -40.685 -85.478  0.00  0.00    +0.000 A 
ATOM      7  C   UNL     1     -57.896 -40.971 -86.560  0.00  0.00    +0.000 A 
ATOM      8  C   UNL     1     -56.522 -41.189 -86.355  0.00  0.00    +0.000 A 
ATOM      9 CL   UNL     1     -55.610 -41.606 -87.761  0.00  0.00    +0.000 Cl
ATOM     10  C   UNL     1     -55.979 -41.109 -85.056  0.00  0.00    +0.000 A 
ATOM     11  C   UNL     1     -54.539 -41.290 -84.740  0.00  0.00    +0.000 A 
ATOM     12  O   UNL     1     -53.690 -41.095 -85.604  0.00  0.00    +0.000 OA
ATOM     13  C   UNL     1     -54.150 -41.699 -83.322  0.00  0.00    +0.000 A 
ATOM     14  H   UNL     1     -56.889 -40.626 -81.897  0.00  0.00    +0.000 HD
ENDROOT
BRANCH   1  15
ATOM     15  S   UNL     1     -54.853 -41.553 -80.570  0.00  0.00    +0.000 S 
ATOM     16  O   UNL     1     -56.277 -41.605 -80.087  0.00  0.00    +0.000 OA
BRANCH  15  17
ATOM     17  C   UNL     1     -54.092 -40.009 -79.964  0.00  0.00    +0.000 C 
BRANCH  17  21
ATOM     18  C   UNL     1     -51.045 -41.378 -76.009  0.00  0.00    +0.000 C 
ATOM     19  C   UNL     1     -51.931 -40.803 -77.044  0.00  0.00    +0.000 A 
ATOM     20  C   UNL     1     -52.390 -41.218 -78.273  0.00  0.00    +0.000 A 
ATOM     21  C   UNL     1     -53.246 -40.171 -78.723  0.00  0.00    +0.000 A 
ATOM     22  N   UNL     1     -53.270 -39.181 -77.813  0.00  0.00    +0.000 NA
ATOM     23  O   UNL     1     -52.455 -39.580 -76.771  0.00  0.00    +0.000 OA
ENDBRANCH  17  21
ENDBRANCH  15  17
ENDBRANCH   1  15
BRANCH  13  24
ATOM     24  C   UNL     1     -52.906 -42.547 -83.176  0.00  0.00    +0.000 C 
ATOM     25  O   UNL     1     -52.941 -43.748 -83.441  0.00  0.00    +0.000 OA
BRANCH  24  26
ATOM     26  C   UNL     1     -51.612 -41.935 -82.637  0.00  0.00    +0.000 C 
ATOM     27  C   UNL     1     -51.050 -42.739 -81.468  0.00  0.00    +0.000 C 
ATOM     28  C   UNL     1     -50.554 -41.779 -83.732  0.00  0.00    +0.000 C 
ENDBRANCH  24  26
ENDBRANCH  13  24
TORSDOF 5
