REMARK VINA RESULT:    -6.266      4.139      7.753
REMARK INTER + INTRA:          -8.961
REMARK INTER:                  -8.461
REMARK INTRA:                  -0.500
REMARK UNBOUND:                -0.863
REMARK  Name = 
REMARK  6 active torsions:
REMARK  status: ('A' for Active; 'I' for Inactive)
REMARK    1  A    between atoms: C_1  and  C_2
REMARK    2  A    between atoms: C_4  and  C_5
REMARK    3  A    between atoms: C_5  and  S_6
REMARK    4  A    between atoms: S_6  and  C_8
REMARK    5  A    between atoms: C_20  and  C_21
REMARK    6  A    between atoms: C_21  and  C_23
REMARK                            x       y       z     vdW  Elec       q    Type
REMARK                         _______ _______ _______ _____ _____    ______ ____
ROOT
ATOM      1  C   UNL     1     -54.289 -41.558 -78.639  0.00  0.00    +0.000 A 
ATOM      2  N   UNL     1     -55.647 -41.883 -78.815  0.00  0.00    +0.000 N 
ATOM      3  C   UNL     1     -56.577 -41.707 -77.754  0.00  0.00    +0.000 A 
ATOM      4  C   UNL     1     -57.968 -41.632 -77.956  0.00  0.00    +0.000 A 
ATOM      5 BR   UNL     1     -58.702 -41.580 -79.704  0.00  0.00    +0.000 Br
ATOM      6  C   UNL     1     -58.856 -41.569 -76.873  0.00  0.00    +0.000 A 
ATOM      7  C   UNL     1     -58.354 -41.553 -75.566  0.00  0.00    +0.000 A 
ATOM      8  C   UNL     1     -56.979 -41.624 -75.341  0.00  0.00    +0.000 A 
ATOM      9 CL   UNL     1     -56.459 -41.524 -73.698  0.00  0.00    +0.000 Cl
ATOM     10  C   UNL     1     -56.103 -41.723 -76.433  0.00  0.00    +0.000 A 
ATOM     11  C   UNL     1     -54.644 -41.889 -76.290  0.00  0.00    +0.000 A 
ATOM     12  O   UNL     1     -54.151 -42.470 -75.331  0.00  0.00    +0.000 OA
ATOM     13  C   UNL     1     -53.768 -41.393 -77.402  0.00  0.00    +0.000 A 
ATOM     14  H   UNL     1     -56.004 -41.582 -79.732  0.00  0.00    +0.000 HD
ENDROOT
BRANCH   1  15
ATOM     15  S   UNL     1     -53.509 -40.971 -80.165  0.00  0.00    +0.000 S 
ATOM     16  O   UNL     1     -54.003 -39.557 -80.312  0.00  0.00    +0.000 OA
BRANCH  15  17
ATOM     17  C   UNL     1     -54.149 -41.920 -81.577  0.00  0.00    +0.000 C 
BRANCH  17  21
ATOM     18  C   UNL     1     -57.241 -39.396 -84.784  0.00  0.00    +0.000 C 
ATOM     19  C   UNL     1     -56.209 -40.120 -84.019  0.00  0.00    +0.000 A 
ATOM     20  C   UNL     1     -56.100 -40.565 -82.723  0.00  0.00    +0.000 A 
ATOM     21  C   UNL     1     -54.876 -41.270 -82.691  0.00  0.00    +0.000 A 
ATOM     22  N   UNL     1     -54.255 -41.190 -83.881  0.00  0.00    +0.000 NA
ATOM     23  O   UNL     1     -55.093 -40.471 -84.708  0.00  0.00    +0.000 OA
ENDBRANCH  17  21
ENDBRANCH  15  17
ENDBRANCH   1  15
BRANCH  13  24
ATOM     24  C   UNL     1     -52.563 -40.653 -76.931  0.00  0.00    +0.000 C 
ATOM     25  O   UNL     1     -52.632 -39.469 -76.653  0.00  0.00    +0.000 OA
BRANCH  24  26
ATOM     26  C   UNL     1     -51.296 -41.391 -76.762  0.00  0.00    +0.000 C 
ATOM     27  C   UNL     1     -50.590 -41.356 -75.431  0.00  0.00    +0.000 C 
ATOM     28  C   UNL     1     -49.981 -40.664 -76.612  0.00  0.00    +0.000 C 
ENDBRANCH  24  26
ENDBRANCH  13  24
TORSDOF 5
