REMARK VINA RESULT:    -6.114     19.927     24.122
REMARK INTER + INTRA:          -8.795
REMARK INTER:                  -7.620
REMARK INTRA:                  -1.175
REMARK UNBOUND:                -0.894
REMARK  Name = 
REMARK  8 active torsions:
REMARK  status: ('A' for Active; 'I' for Inactive)
REMARK    1  A    between atoms: C_1  and  C_2
REMARK    2  A    between atoms: C_4  and  C_5
REMARK    3  A    between atoms: C_5  and  S_6
REMARK    4  A    between atoms: S_6  and  C_8
REMARK    5  A    between atoms: C_20  and  C_21
REMARK    6  A    between atoms: C_21  and  C_23
REMARK    7  A    between atoms: C_23  and  C_24
REMARK    8  A    between atoms: C_23  and  C_25
REMARK                            x       y       z     vdW  Elec       q    Type
REMARK                         _______ _______ _______ _____ _____    ______ ____
ROOT
ATOM      1  C   UNL     1     -66.199 -48.366 -56.027  0.00  0.00    +0.000 A 
ATOM      2  N   UNL     1     -66.896 -48.054 -57.192  0.00  0.00    +0.000 N 
ATOM      3  C   UNL     1     -68.254 -48.401 -57.358  0.00  0.00    +0.000 A 
ATOM      4  C   UNL     1     -69.071 -47.779 -58.322  0.00  0.00    +0.000 A 
ATOM      5 CL   UNL     1     -68.487 -46.438 -59.243  0.00  0.00    +0.000 Cl
ATOM      6  C   UNL     1     -70.380 -48.209 -58.539  0.00  0.00    +0.000 A 
ATOM      7  C   UNL     1     -70.892 -49.270 -57.789  0.00  0.00    +0.000 A 
ATOM      8  C   UNL     1     -70.099 -49.892 -56.816  0.00  0.00    +0.000 A 
ATOM      9 CL   UNL     1     -70.862 -51.145 -55.908  0.00  0.00    +0.000 Cl
ATOM     10  C   UNL     1     -68.778 -49.464 -56.611  0.00  0.00    +0.000 A 
ATOM     11  C   UNL     1     -67.824 -50.099 -55.666  0.00  0.00    +0.000 A 
ATOM     12  O   UNL     1     -67.953 -51.286 -55.392  0.00  0.00    +0.000 OA
ATOM     13  C   UNL     1     -66.653 -49.284 -55.128  0.00  0.00    +0.000 A 
ATOM     14  H   UNL     1     -66.615 -47.158 -57.612  0.00  0.00    +0.000 HD
ENDROOT
BRANCH   1  15
ATOM     15  S   UNL     1     -64.782 -47.221 -55.775  0.00  0.00    +0.000 S 
ATOM     16  O   UNL     1     -65.141 -46.483 -54.514  0.00  0.00    +0.000 OA
BRANCH  15  17
ATOM     17  C   UNL     1     -64.959 -46.040 -57.174  0.00  0.00    +0.000 C 
BRANCH  17  21
ATOM     18  C   UNL     1     -61.804 -46.957 -61.166  0.00  0.00    +0.000 C 
ATOM     19  C   UNL     1     -62.840 -46.822 -60.121  0.00  0.00    +0.000 A 
ATOM     20  C   UNL     1     -62.888 -46.271 -58.861  0.00  0.00    +0.000 A 
ATOM     21  C   UNL     1     -64.232 -46.455 -58.429  0.00  0.00    +0.000 A 
ATOM     22  N   UNL     1     -64.931 -47.110 -59.372  0.00  0.00    +0.000 NA
ATOM     23  O   UNL     1     -64.062 -47.330 -60.424  0.00  0.00    +0.000 OA
ENDBRANCH  17  21
ENDBRANCH  15  17
ENDBRANCH   1  15
BRANCH  13  24
ATOM     24  C   UNL     1     -66.237 -49.631 -53.714  0.00  0.00    +0.000 C 
ATOM     25  O   UNL     1     -66.846 -49.138 -52.755  0.00  0.00    +0.000 OA
BRANCH  24  26
ATOM     26  C   UNL     1     -64.995 -50.449 -53.413  0.00  0.00    +0.000 C 
ATOM     27  C   UNL     1     -63.928 -49.556 -52.807  0.00  0.00    +0.000 C 
ATOM     28  C   UNL     1     -65.320 -51.673 -52.565  0.00  0.00    +0.000 C 
ENDBRANCH  24  26
ENDBRANCH  13  24
TORSDOF 5
