REMARK  Name = 
REMARK  6 active torsions:
REMARK  status: ('A' for Active; 'I' for Inactive)
REMARK    1  A    between atoms: C_1  and  C_2
REMARK    2  A    between atoms: C_2  and  C_4
REMARK    3  A    between atoms: C_5  and  S_6
REMARK    4  A    between atoms: S_6  and  C_8
REMARK    5  A    between atoms: C_8  and  C_9
REMARK    6  A    between atoms: C_11  and  C_12
REMARK                            x       y       z     vdW  Elec       q    Type
REMARK                         _______ _______ _______ _____ _____    ______ ____
ROOT
ATOM      1  C   UNL     1       3.053   0.817   1.027  0.00  0.00    +0.000 A 
ATOM      2  C   UNL     1       2.844   0.784   2.362  0.00  0.00    +0.000 A 
ATOM      3  N   UNL     1       3.516   1.595   3.256  0.00  0.00    +0.000 N 
ATOM      4  C   UNL     1       4.561   2.454   2.873  0.00  0.00    +0.000 A 
ATOM      5  C   UNL     1       5.196   3.280   3.820  0.00  0.00    +0.000 A 
ATOM      6 BR   UNL     1       4.709   3.219   5.655  0.00  0.00    +0.000 Br
ATOM      7  C   UNL     1       6.197   4.170   3.439  0.00  0.00    +0.000 A 
ATOM      8  C   UNL     1       6.573   4.247   2.101  0.00  0.00    +0.000 A 
ATOM      9  C   UNL     1       5.938   3.456   1.136  0.00  0.00    +0.000 A 
ATOM     10 CL   UNL     1       6.517   3.662  -0.480  0.00  0.00    +0.000 Cl
ATOM     11  C   UNL     1       4.907   2.573   1.516  0.00  0.00    +0.000 A 
ATOM     12  C   UNL     1       4.162   1.717   0.550  0.00  0.00    +0.000 A 
ATOM     13  O   UNL     1       4.476   1.713  -0.634  0.00  0.00    +0.000 OA
ATOM     14  H   UNL     1       3.550   1.260   4.219  0.00  0.00    +0.000 HD
ENDROOT
BRANCH   1  16
ATOM     15  C   UNL     1       2.192   0.500  -1.403  0.00  0.00    +0.000 C 
ATOM     16  C   UNL     1       2.288  -0.002   0.021  0.00  0.00    +0.000 C 
ATOM     17  O   UNL     1       1.716  -1.046   0.333  0.00  0.00    +0.000 OA
ENDBRANCH   1  16
BRANCH   2  18
ATOM     18  S   UNL     1       1.755  -0.467   3.121  0.00  0.00    +0.000 S 
ATOM     19  O   UNL     1       2.663  -1.178   4.088  0.00  0.00    +0.000 OA
BRANCH  18  20
ATOM     20  C   UNL     1       0.701   0.631   4.134  0.00  0.00    +0.000 C 
BRANCH  20  21
ATOM     21  C   UNL     1      -0.331  -0.138   4.890  0.00  0.00    +0.000 A 
ATOM     22  C   UNL     1      -0.156  -1.194   5.824  0.00  0.00    +0.000 A 
ATOM     23  C   UNL     1      -1.425  -1.484   6.260  0.00  0.00    +0.000 A 
ATOM     24  C   UNL     1      -1.994  -2.453   7.216  0.00  0.00    +0.000 C 
ATOM     25  O   UNL     1      -2.307  -0.657   5.639  0.00  0.00    +0.000 OA
ATOM     26  N   UNL     1      -1.625   0.192   4.784  0.00  0.00    +0.000 NA
ENDBRANCH  20  21
ENDBRANCH  18  20
ENDBRANCH   2  18
TORSDOF 4
