REMARK VINA RESULT:    -5.301     15.715     16.976
REMARK INTER + INTRA:          -7.184
REMARK INTER:                  -6.465
REMARK INTRA:                  -0.719
REMARK UNBOUND:                -0.644
REMARK  Name = 
REMARK  6 active torsions:
REMARK  status: ('A' for Active; 'I' for Inactive)
REMARK    1  A    between atoms: C_1  and  C_2
REMARK    2  A    between atoms: C_2  and  C_4
REMARK    3  A    between atoms: C_5  and  S_6
REMARK    4  A    between atoms: S_6  and  C_8
REMARK    5  A    between atoms: C_8  and  C_9
REMARK    6  A    between atoms: C_11  and  C_12
REMARK                            x       y       z     vdW  Elec       q    Type
REMARK                         _______ _______ _______ _____ _____    ______ ____
ROOT
ATOM      1  C   UNL     1     -58.494 -39.523 -62.307  0.00  0.00    +0.000 A 
ATOM      2  C   UNL     1     -58.343 -38.191 -62.129  0.00  0.00    +0.000 A 
ATOM      3  N   UNL     1     -57.254 -37.482 -62.594  0.00  0.00    +0.000 N 
ATOM      4  C   UNL     1     -56.127 -38.100 -63.161  0.00  0.00    +0.000 A 
ATOM      5  C   UNL     1     -55.027 -37.338 -63.597  0.00  0.00    +0.000 A 
ATOM      6 BR   UNL     1     -54.998 -35.450 -63.382  0.00  0.00    +0.000 Br
ATOM      7  C   UNL     1     -53.928 -37.939 -64.200  0.00  0.00    +0.000 A 
ATOM      8  C   UNL     1     -53.918 -39.322 -64.385  0.00  0.00    +0.000 A 
ATOM      9  C   UNL     1     -55.007 -40.101 -63.980  0.00  0.00    +0.000 A 
ATOM     10 CL   UNL     1     -54.835 -41.800 -64.256  0.00  0.00    +0.000 Cl
ATOM     11  C   UNL     1     -56.130 -39.487 -63.389  0.00  0.00    +0.000 A 
ATOM     12  C   UNL     1     -57.344 -40.239 -62.966  0.00  0.00    +0.000 A 
ATOM     13  O   UNL     1     -57.392 -41.452 -63.121  0.00  0.00    +0.000 OA
ATOM     14  H   UNL     1     -57.074 -36.593 -62.122  0.00  0.00    +0.000 HD
ENDROOT
BRANCH   1  16
ATOM     15  C   UNL     1     -60.896 -40.419 -62.772  0.00  0.00    +0.000 C 
ATOM     16  C   UNL     1     -59.696 -40.316 -61.857  0.00  0.00    +0.000 C 
ATOM     17  O   UNL     1     -59.730 -40.870 -60.757  0.00  0.00    +0.000 OA
ENDBRANCH   1  16
BRANCH   2  18
ATOM     18  S   UNL     1     -59.502 -37.231 -61.097  0.00  0.00    +0.000 S 
ATOM     19  O   UNL     1     -58.681 -36.043 -60.669  0.00  0.00    +0.000 OA
BRANCH  18  20
ATOM     20  C   UNL     1     -60.628 -36.616 -62.402  0.00  0.00    +0.000 C 
BRANCH  20  21
ATOM     21  C   UNL     1     -61.196 -35.284 -62.040  0.00  0.00    +0.000 A 
ATOM     22  C   UNL     1     -62.102 -34.949 -60.999  0.00  0.00    +0.000 A 
ATOM     23  C   UNL     1     -62.258 -33.588 -61.101  0.00  0.00    +0.000 A 
ATOM     24  C   UNL     1     -63.050 -32.579 -60.373  0.00  0.00    +0.000 C 
ATOM     25  O   UNL     1     -61.485 -33.128 -62.120  0.00  0.00    +0.000 OA
ATOM     26  N   UNL     1     -60.811 -34.186 -62.706  0.00  0.00    +0.000 NA
ENDBRANCH  20  21
ENDBRANCH  18  20
ENDBRANCH   2  18
TORSDOF 4
