REMARK VINA RESULT:    -6.120      4.368      6.866
REMARK INTER + INTRA:          -8.782
REMARK INTER:                  -7.523
REMARK INTRA:                  -1.259
REMARK UNBOUND:                -0.874
REMARK  Name = 
REMARK  8 active torsions:
REMARK  status: ('A' for Active; 'I' for Inactive)
REMARK    1  A    between atoms: C_1  and  C_2
REMARK    2  A    between atoms: C_4  and  C_5
REMARK    3  A    between atoms: C_5  and  S_6
REMARK    4  A    between atoms: S_6  and  C_8
REMARK    5  A    between atoms: C_20  and  C_21
REMARK    6  A    between atoms: C_21  and  C_23
REMARK    7  A    between atoms: C_23  and  C_24
REMARK    8  A    between atoms: C_23  and  C_25
REMARK                            x       y       z     vdW  Elec       q    Type
REMARK                         _______ _______ _______ _____ _____    ______ ____
ROOT
ATOM      1  C   UNL     1     -55.515 -43.316 -78.328  0.00  0.00    +0.000 A 
ATOM      2  N   UNL     1     -55.496 -44.401 -79.199  0.00  0.00    +0.000 N 
ATOM      3  C   UNL     1     -55.562 -45.727 -78.728  0.00  0.00    +0.000 A 
ATOM      4  C   UNL     1     -55.959 -46.796 -79.554  0.00  0.00    +0.000 A 
ATOM      5 BR   UNL     1     -56.587 -46.485 -81.317  0.00  0.00    +0.000 Br
ATOM      6  C   UNL     1     -55.941 -48.112 -79.084  0.00  0.00    +0.000 A 
ATOM      7  C   UNL     1     -55.532 -48.379 -77.781  0.00  0.00    +0.000 A 
ATOM      8  C   UNL     1     -55.139 -47.324 -76.937  0.00  0.00    +0.000 A 
ATOM      9 CL   UNL     1     -54.720 -47.770 -75.322  0.00  0.00    +0.000 Cl
ATOM     10  C   UNL     1     -55.150 -45.997 -77.413  0.00  0.00    +0.000 A 
ATOM     11  C   UNL     1     -54.723 -44.820 -76.614  0.00  0.00    +0.000 A 
ATOM     12  O   UNL     1     -53.949 -44.964 -75.672  0.00  0.00    +0.000 OA
ATOM     13  C   UNL     1     -55.250 -43.442 -77.006  0.00  0.00    +0.000 A 
ATOM     14  H   UNL     1     -55.953 -44.219 -80.103  0.00  0.00    +0.000 HD
ENDROOT
BRANCH   1  15
ATOM     15  S   UNL     1     -56.143 -41.804 -79.152  0.00  0.00    +0.000 S 
ATOM     16  O   UNL     1     -56.446 -42.259 -80.554  0.00  0.00    +0.000 OA
BRANCH  15  17
ATOM     17  C   UNL     1     -54.681 -40.714 -79.200  0.00  0.00    +0.000 C 
BRANCH  17  21
ATOM     18  C   UNL     1     -50.887 -43.029 -81.856  0.00  0.00    +0.000 C 
ATOM     19  C   UNL     1     -51.835 -42.357 -80.941  0.00  0.00    +0.000 A 
ATOM     20  C   UNL     1     -53.101 -41.830 -81.064  0.00  0.00    +0.000 A 
ATOM     21  C   UNL     1     -53.435 -41.359 -79.761  0.00  0.00    +0.000 A 
ATOM     22  N   UNL     1     -52.409 -41.578 -78.921  0.00  0.00    +0.000 NA
ATOM     23  O   UNL     1     -51.419 -42.201 -79.658  0.00  0.00    +0.000 OA
ENDBRANCH  17  21
ENDBRANCH  15  17
ENDBRANCH   1  15
BRANCH  13  24
ATOM     24  C   UNL     1     -55.438 -42.443 -75.886  0.00  0.00    +0.000 C 
ATOM     25  O   UNL     1     -54.650 -41.508 -75.752  0.00  0.00    +0.000 OA
BRANCH  24  26
ATOM     26  C   UNL     1     -56.569 -42.622 -74.872  0.00  0.00    +0.000 C 
ATOM     27  C   UNL     1     -56.814 -41.349 -74.066  0.00  0.00    +0.000 C 
ATOM     28  C   UNL     1     -57.867 -43.087 -75.538  0.00  0.00    +0.000 C 
ENDBRANCH  24  26
ENDBRANCH  13  24
TORSDOF 5
