REMARK VINA RESULT:    -5.231     10.402     12.707
REMARK INTER + INTRA:          -7.647
REMARK INTER:                  -6.711
REMARK INTRA:                  -0.935
REMARK UNBOUND:                -0.887
REMARK  Name = 
REMARK  8 active torsions:
REMARK  status: ('A' for Active; 'I' for Inactive)
REMARK    1  A    between atoms: C_1  and  C_2
REMARK    2  A    between atoms: C_4  and  C_5
REMARK    3  A    between atoms: C_5  and  S_6
REMARK    4  A    between atoms: S_6  and  C_8
REMARK    5  A    between atoms: C_20  and  C_21
REMARK    6  A    between atoms: C_21  and  C_23
REMARK    7  A    between atoms: C_23  and  C_24
REMARK    8  A    between atoms: C_23  and  C_25
REMARK                            x       y       z     vdW  Elec       q    Type
REMARK                         _______ _______ _______ _____ _____    ______ ____
ROOT
ATOM      1  C   UNL     1     -64.536 -43.311 -69.484  0.00  0.00    +0.000 A 
ATOM      2  N   UNL     1     -65.668 -43.969 -69.011  0.00  0.00    +0.000 N 
ATOM      3  C   UNL     1     -66.609 -43.320 -68.188  0.00  0.00    +0.000 A 
ATOM      4  C   UNL     1     -67.927 -43.792 -68.041  0.00  0.00    +0.000 A 
ATOM      5 BR   UNL     1     -68.564 -45.246 -69.079  0.00  0.00    +0.000 Br
ATOM      6  C   UNL     1     -68.817 -43.175 -67.158  0.00  0.00    +0.000 A 
ATOM      7  C   UNL     1     -68.405 -42.074 -66.412  0.00  0.00    +0.000 A 
ATOM      8  C   UNL     1     -67.094 -41.583 -66.549  0.00  0.00    +0.000 A 
ATOM      9 CL   UNL     1     -66.721 -40.171 -65.627  0.00  0.00    +0.000 Cl
ATOM     10  C   UNL     1     -66.194 -42.209 -67.435  0.00  0.00    +0.000 A 
ATOM     11  C   UNL     1     -64.782 -41.788 -67.627  0.00  0.00    +0.000 A 
ATOM     12  O   UNL     1     -64.200 -41.168 -66.742  0.00  0.00    +0.000 OA
ATOM     13  C   UNL     1     -64.080 -42.163 -68.929  0.00  0.00    +0.000 A 
ATOM     14  H   UNL     1     -66.045 -44.670 -69.663  0.00  0.00    +0.000 HD
ENDROOT
BRANCH   1  15
ATOM     15  S   UNL     1     -63.916 -44.070 -71.033  0.00  0.00    +0.000 S 
ATOM     16  O   UNL     1     -62.438 -43.790 -71.004  0.00  0.00    +0.000 OA
BRANCH  15  17
ATOM     17  C   UNL     1     -64.674 -43.041 -72.335  0.00  0.00    +0.000 C 
BRANCH  17  21
ATOM     18  C   UNL     1     -68.817 -44.901 -74.820  0.00  0.00    +0.000 C 
ATOM     19  C   UNL     1     -67.758 -44.351 -73.946  0.00  0.00    +0.000 A 
ATOM     20  C   UNL     1     -66.400 -44.160 -74.062  0.00  0.00    +0.000 A 
ATOM     21  C   UNL     1     -66.006 -43.545 -72.839  0.00  0.00    +0.000 A 
ATOM     22  N   UNL     1     -67.075 -43.402 -72.036  0.00  0.00    +0.000 NA
ATOM     23  O   UNL     1     -68.161 -43.901 -72.730  0.00  0.00    +0.000 OA
ENDBRANCH  17  21
ENDBRANCH  15  17
ENDBRANCH   1  15
BRANCH  13  24
ATOM     24  C   UNL     1     -63.024 -41.204 -69.432  0.00  0.00    +0.000 C 
ATOM     25  O   UNL     1     -61.831 -41.458 -69.272  0.00  0.00    +0.000 OA
BRANCH  24  26
ATOM     26  C   UNL     1     -63.429 -39.881 -70.083  0.00  0.00    +0.000 C 
ATOM     27  C   UNL     1     -64.835 -39.948 -70.675  0.00  0.00    +0.000 C 
ATOM     28  C   UNL     1     -63.319 -38.706 -69.108  0.00  0.00    +0.000 C 
ENDBRANCH  24  26
ENDBRANCH  13  24
TORSDOF 5
