REMARK  Name = 
REMARK  6 active torsions:
REMARK  status: ('A' for Active; 'I' for Inactive)
REMARK    1  A    between atoms: C_1  and  C_2
REMARK    2  A    between atoms: C_2  and  C_4
REMARK    3  A    between atoms: C_5  and  S_6
REMARK    4  A    between atoms: S_6  and  C_8
REMARK    5  A    between atoms: C_8  and  C_9
REMARK    6  A    between atoms: C_11  and  C_12
REMARK                            x       y       z     vdW  Elec       q    Type
REMARK                         _______ _______ _______ _____ _____    ______ ____
ROOT
ATOM      1  C   UNL     1       3.164  -0.774  -0.959  0.00  0.00    +0.000 A 
ATOM      2  C   UNL     1       2.806  -0.697  -2.260  0.00  0.00    +0.000 A 
ATOM      3  N   UNL     1       3.495  -1.327  -3.281  0.00  0.00    +0.000 N 
ATOM      4  C   UNL     1       4.707  -2.001  -3.076  0.00  0.00    +0.000 A 
ATOM      5  C   UNL     1       5.391  -2.595  -4.154  0.00  0.00    +0.000 A 
ATOM      6 BR   UNL     1       4.740  -2.436  -5.932  0.00  0.00    +0.000 Br
ATOM      7  C   UNL     1       6.565  -3.313  -3.952  0.00  0.00    +0.000 A 
ATOM      8  C   UNL     1       7.069  -3.456  -2.660  0.00  0.00    +0.000 A 
ATOM      9  C   UNL     1       6.396  -2.893  -1.570  0.00  0.00    +0.000 A 
ATOM     10 CL   UNL     1       7.144  -3.157  -0.032  0.00  0.00    +0.000 Cl
ATOM     11  C   UNL     1       5.201  -2.174  -1.771  0.00  0.00    +0.000 A 
ATOM     12  C   UNL     1       4.430  -1.537  -0.666  0.00  0.00    +0.000 A 
ATOM     13  O   UNL     1       4.850  -1.595   0.483  0.00  0.00    +0.000 OA
ATOM     14  H   UNL     1       3.367  -0.922  -4.209  0.00  0.00    +0.000 HD
ENDROOT
BRANCH   1  16
ATOM     15  C   UNL     1       2.598  -0.648   1.582  0.00  0.00    +0.000 C 
ATOM     16  C   UNL     1       2.414  -0.119   0.176  0.00  0.00    +0.000 C 
ATOM     17  O   UNL     1       1.647   0.824  -0.015  0.00  0.00    +0.000 OA
ENDBRANCH   1  16
BRANCH   2  18
ATOM     18  S   UNL     1       1.461   0.404  -2.809  0.00  0.00    +0.000 S 
ATOM     19  O   UNL     1       2.134   1.315  -3.800  0.00  0.00    +0.000 OA
BRANCH  18  20
ATOM     20  C   UNL     1       0.485  -0.784  -3.800  0.00  0.00    +0.000 C 
BRANCH  20  21
ATOM     21  C   UNL     1      -0.764  -0.181  -4.355  0.00  0.00    +0.000 A 
ATOM     22  C   UNL     1      -0.994   1.108  -4.901  0.00  0.00    +0.000 A 
ATOM     23  C   UNL     1      -2.317   1.098  -5.273  0.00  0.00    +0.000 A 
ATOM     24  C   UNL     1      -3.235   2.089  -5.862  0.00  0.00    +0.000 C 
ATOM     25  O   UNL     1      -2.842  -0.126  -5.005  0.00  0.00    +0.000 OA
ATOM     26  N   UNL     1      -1.873  -0.932  -4.436  0.00  0.00    +0.000 NA
ENDBRANCH  20  21
ENDBRANCH  18  20
ENDBRANCH   2  18
TORSDOF 4
