REMARK VINA RESULT:    -5.981     13.203     15.053
REMARK INTER + INTRA:          -8.230
REMARK INTER:                  -8.111
REMARK INTRA:                  -0.120
REMARK UNBOUND:                -0.850
REMARK  Name = 
REMARK  6 active torsions:
REMARK  status: ('A' for Active; 'I' for Inactive)
REMARK    1  A    between atoms: C_1  and  C_2
REMARK    2  A    between atoms: C_2  and  C_4
REMARK    3  A    between atoms: C_5  and  S_6
REMARK    4  A    between atoms: S_6  and  C_8
REMARK    5  A    between atoms: C_8  and  C_9
REMARK    6  A    between atoms: C_11  and  C_12
REMARK                            x       y       z     vdW  Elec       q    Type
REMARK                         _______ _______ _______ _____ _____    ______ ____
ROOT
ATOM      1  C   UNL     1     -53.720 -40.775 -77.845  0.00  0.00    +0.000 A 
ATOM      2  C   UNL     1     -54.645 -41.754 -77.956  0.00  0.00    +0.000 A 
ATOM      3  N   UNL     1     -54.594 -42.927 -77.233  0.00  0.00    +0.000 N 
ATOM      4  C   UNL     1     -53.550 -43.243 -76.350  0.00  0.00    +0.000 A 
ATOM      5  C   UNL     1     -53.594 -44.405 -75.561  0.00  0.00    +0.000 A 
ATOM      6 BR   UNL     1     -55.043 -45.630 -75.709  0.00  0.00    +0.000 Br
ATOM      7  C   UNL     1     -52.589 -44.692 -74.643  0.00  0.00    +0.000 A 
ATOM      8  C   UNL     1     -51.522 -43.809 -74.496  0.00  0.00    +0.000 A 
ATOM      9  C   UNL     1     -51.466 -42.631 -75.249  0.00  0.00    +0.000 A 
ATOM     10 CL   UNL     1     -50.089 -41.628 -74.949  0.00  0.00    +0.000 Cl
ATOM     11  C   UNL     1     -52.497 -42.330 -76.162  0.00  0.00    +0.000 A 
ATOM     12  C   UNL     1     -52.526 -41.090 -76.981  0.00  0.00    +0.000 A 
ATOM     13  O   UNL     1     -51.560 -40.333 -76.998  0.00  0.00    +0.000 OA
ATOM     14  H   UNL     1     -55.125 -43.715 -77.605  0.00  0.00    +0.000 HD
ENDROOT
BRANCH   1  16
ATOM     15  C   UNL     1     -53.995 -39.417 -80.032  0.00  0.00    +0.000 C 
ATOM     16  C   UNL     1     -53.788 -39.441 -78.533  0.00  0.00    +0.000 C 
ATOM     17  O   UNL     1     -53.640 -38.384 -77.922  0.00  0.00    +0.000 OA
ENDBRANCH   1  16
BRANCH   2  18
ATOM     18  S   UNL     1     -55.974 -41.654 -79.200  0.00  0.00    +0.000 S 
ATOM     19  O   UNL     1     -56.347 -43.094 -79.433  0.00  0.00    +0.000 OA
BRANCH  18  20
ATOM     20  C   UNL     1     -57.296 -40.957 -78.160  0.00  0.00    +0.000 C 
BRANCH  20  21
ATOM     21  C   UNL     1     -57.280 -41.516 -76.775  0.00  0.00    +0.000 A 
ATOM     22  C   UNL     1     -56.980 -40.863 -75.552  0.00  0.00    +0.000 A 
ATOM     23  C   UNL     1     -57.210 -41.812 -74.587  0.00  0.00    +0.000 A 
ATOM     24  C   UNL     1     -57.131 -41.830 -73.114  0.00  0.00    +0.000 C 
ATOM     25  O   UNL     1     -57.610 -42.965 -75.185  0.00  0.00    +0.000 OA
ATOM     26  N   UNL     1     -57.662 -42.783 -76.557  0.00  0.00    +0.000 NA
ENDBRANCH  20  21
ENDBRANCH  18  20
ENDBRANCH   2  18
TORSDOF 4
