REMARK VINA RESULT:    -6.621      3.727      7.248
REMARK INTER + INTRA:          -9.736
REMARK INTER:                  -9.017
REMARK INTRA:                  -0.719
REMARK UNBOUND:                -1.180
REMARK  Name = 
REMARK  6 active torsions:
REMARK  status: ('A' for Active; 'I' for Inactive)
REMARK    1  A    between atoms: C_1  and  C_2
REMARK    2  A    between atoms: C_2  and  C_4
REMARK    3  A    between atoms: C_5  and  S_6
REMARK    4  A    between atoms: S_6  and  C_8
REMARK    5  A    between atoms: C_8  and  C_9
REMARK    6  A    between atoms: C_12  and  C_13
REMARK                            x       y       z     vdW  Elec       q    Type
REMARK                         _______ _______ _______ _____ _____    ______ ____
ROOT
ATOM      1  C   UNL     1     -53.133 -41.544 -77.672  0.00  0.00    +0.000 A 
ATOM      2  C   UNL     1     -54.466 -41.357 -77.757  0.00  0.00    +0.000 A 
ATOM      3  N   UNL     1     -55.174 -41.540 -78.928  0.00  0.00    +0.000 N 
ATOM      4  C   UNL     1     -54.583 -41.854 -80.156  0.00  0.00    +0.000 A 
ATOM      5  C   UNL     1     -55.358 -42.050 -81.314  0.00  0.00    +0.000 A 
ATOM      6 BR   UNL     1     -57.244 -41.840 -81.281  0.00  0.00    +0.000 Br
ATOM      7  C   UNL     1     -54.762 -42.409 -82.524  0.00  0.00    +0.000 A 
ATOM      8  C   UNL     1     -53.381 -42.573 -82.591  0.00  0.00    +0.000 A 
ATOM      9  C   UNL     1     -52.590 -42.392 -81.451  0.00  0.00    +0.000 A 
ATOM     10 CL   UNL     1     -50.893 -42.627 -81.689  0.00  0.00    +0.000 Cl
ATOM     11  C   UNL     1     -53.192 -42.047 -80.225  0.00  0.00    +0.000 A 
ATOM     12  C   UNL     1     -52.421 -41.860 -78.961  0.00  0.00    +0.000 A 
ATOM     13  O   UNL     1     -51.197 -41.922 -78.968  0.00  0.00    +0.000 OA
ATOM     14  H   UNL     1     -56.151 -41.228 -78.907  0.00  0.00    +0.000 HD
ENDROOT
BRANCH   1  16
ATOM     15  C   UNL     1     -52.200 -42.664 -75.535  0.00  0.00    +0.000 C 
ATOM     16  C   UNL     1     -52.337 -41.435 -76.405  0.00  0.00    +0.000 C 
ATOM     17  O   UNL     1     -51.844 -40.367 -76.043  0.00  0.00    +0.000 OA
ENDBRANCH   1  16
BRANCH   2  18
ATOM     18  S   UNL     1     -55.475 -40.691 -76.395  0.00  0.00    +0.000 S 
ATOM     19  O   UNL     1     -56.736 -40.241 -77.087  0.00  0.00    +0.000 OA
BRANCH  18  20
ATOM     20  C   UNL     1     -55.863 -42.225 -75.479  0.00  0.00    +0.000 C 
BRANCH  20  21
ATOM     21  C   UNL     1     -57.035 -42.061 -74.525  0.00  0.00    +0.000 A 
ATOM     22  C   UNL     1     -58.322 -42.497 -74.880  0.00  0.00    +0.000 A 
ATOM     23  C   UNL     1     -59.399 -42.354 -73.999  0.00  0.00    +0.000 A 
ATOM     24  C   UNL     1     -59.207 -41.789 -72.736  0.00  0.00    +0.000 A 
ATOM     25  C   UNL     1     -57.926 -41.364 -72.366  0.00  0.00    +0.000 A 
ATOM     26  C   UNL     1     -56.851 -41.496 -73.253  0.00  0.00    +0.000 A 
BRANCH  24  27
ATOM     27  C   UNL     1     -60.313 -41.643 -71.829  0.00  0.00    +0.000 C 
ATOM     28  N   UNL     1     -61.201 -41.526 -71.093  0.00  0.00    +0.000 NA
ENDBRANCH  24  27
ENDBRANCH  20  21
ENDBRANCH  18  20
ENDBRANCH   2  18
TORSDOF 5
