REMARK VINA RESULT:    -5.487     12.635     15.335
REMARK INTER + INTRA:          -8.031
REMARK INTER:                  -6.831
REMARK INTRA:                  -1.200
REMARK UNBOUND:                -0.940
REMARK  Name = 
REMARK  6 active torsions:
REMARK  status: ('A' for Active; 'I' for Inactive)
REMARK    1  A    between atoms: C_1  and  C_2
REMARK    2  A    between atoms: C_4  and  C_5
REMARK    3  A    between atoms: C_5  and  S_6
REMARK    4  A    between atoms: S_6  and  C_8
REMARK    5  A    between atoms: C_20  and  C_21
REMARK    6  A    between atoms: C_21  and  C_23
REMARK                            x       y       z     vdW  Elec       q    Type
REMARK                         _______ _______ _______ _____ _____    ______ ____
ROOT
ATOM      1  C   UNL     1     -56.947 -42.177 -78.707  0.00  0.00    +0.000 A 
ATOM      2  N   UNL     1     -55.672 -42.183 -78.108  0.00  0.00    +0.000 N 
ATOM      3  C   UNL     1     -54.497 -42.157 -78.909  0.00  0.00    +0.000 A 
ATOM      4  C   UNL     1     -53.238 -41.774 -78.411  0.00  0.00    +0.000 A 
ATOM      5 BR   UNL     1     -53.048 -41.082 -76.655  0.00  0.00    +0.000 Br
ATOM      6  C   UNL     1     -52.085 -41.868 -79.204  0.00  0.00    +0.000 A 
ATOM      7  C   UNL     1     -52.188 -42.325 -80.523  0.00  0.00    +0.000 A 
ATOM      8  C   UNL     1     -53.426 -42.709 -81.039  0.00  0.00    +0.000 A 
ATOM      9 CL   UNL     1     -53.458 -43.189 -82.697  0.00  0.00    +0.000 Cl
ATOM     10  C   UNL     1     -54.566 -42.644 -80.224  0.00  0.00    +0.000 A 
ATOM     11  C   UNL     1     -55.900 -43.108 -80.653  0.00  0.00    +0.000 A 
ATOM     12  O   UNL     1     -56.037 -44.022 -81.455  0.00  0.00    +0.000 OA
ATOM     13  C   UNL     1     -57.103 -42.477 -80.015  0.00  0.00    +0.000 A 
ATOM     14  H   UNL     1     -55.626 -41.568 -77.285  0.00  0.00    +0.000 HD
ENDROOT
BRANCH   1  15
ATOM     15  S   UNL     1     -58.187 -41.324 -77.697  0.00  0.00    +0.000 S 
ATOM     16  O   UNL     1     -57.507 -40.048 -77.279  0.00  0.00    +0.000 OA
BRANCH  15  17
ATOM     17  C   UNL     1     -58.510 -42.287 -76.191  0.00  0.00    +0.000 C 
BRANCH  17  21
ATOM     18  C   UNL     1     -56.378 -41.739 -71.568  0.00  0.00    +0.000 C 
ATOM     19  C   UNL     1     -56.803 -41.973 -72.961  0.00  0.00    +0.000 A 
ATOM     20  C   UNL     1     -57.995 -41.871 -73.638  0.00  0.00    +0.000 A 
ATOM     21  C   UNL     1     -57.665 -42.156 -74.982  0.00  0.00    +0.000 A 
ATOM     22  N   UNL     1     -56.365 -42.480 -75.089  0.00  0.00    +0.000 NA
ATOM     23  O   UNL     1     -55.830 -42.363 -73.823  0.00  0.00    +0.000 OA
ENDBRANCH  17  21
ENDBRANCH  15  17
ENDBRANCH   1  15
BRANCH  13  24
ATOM     24  C   UNL     1     -58.186 -42.140 -80.982  0.00  0.00    +0.000 C 
ATOM     25  O   UNL     1     -59.271 -42.690 -80.913  0.00  0.00    +0.000 OA
BRANCH  24  26
ATOM     26  C   UNL     1     -57.937 -41.096 -81.993  0.00  0.00    +0.000 C 
ATOM     27  C   UNL     1     -58.978 -40.822 -83.048  0.00  0.00    +0.000 C 
ATOM     28  C   UNL     1     -57.675 -41.451 -83.438  0.00  0.00    +0.000 C 
ENDBRANCH  24  26
ENDBRANCH  13  24
TORSDOF 5
