REMARK VINA RESULT:    -6.894      2.738      4.096
REMARK INTER + INTRA:          -9.772
REMARK INTER:                  -8.923
REMARK INTRA:                  -0.848
REMARK UNBOUND:                -0.863
REMARK  Name = 
REMARK  6 active torsions:
REMARK  status: ('A' for Active; 'I' for Inactive)
REMARK    1  A    between atoms: C_1  and  C_2
REMARK    2  A    between atoms: C_4  and  C_5
REMARK    3  A    between atoms: C_5  and  S_6
REMARK    4  A    between atoms: S_6  and  C_8
REMARK    5  A    between atoms: C_20  and  C_21
REMARK    6  A    between atoms: C_21  and  C_23
REMARK                            x       y       z     vdW  Elec       q    Type
REMARK                         _______ _______ _______ _____ _____    ______ ____
ROOT
ATOM      1  C   UNL     1     -55.687 -42.232 -76.890  0.00  0.00    +0.000 A 
ATOM      2  N   UNL     1     -54.929 -41.047 -76.959  0.00  0.00    +0.000 N 
ATOM      3  C   UNL     1     -53.534 -41.064 -76.682  0.00  0.00    +0.000 A 
ATOM      4  C   UNL     1     -52.656 -40.045 -77.098  0.00  0.00    +0.000 A 
ATOM      5 BR   UNL     1     -53.251 -38.642 -78.228  0.00  0.00    +0.000 Br
ATOM      6  C   UNL     1     -51.309 -40.045 -76.710  0.00  0.00    +0.000 A 
ATOM      7  C   UNL     1     -50.816 -41.089 -75.919  0.00  0.00    +0.000 A 
ATOM      8  C   UNL     1     -51.666 -42.112 -75.497  0.00  0.00    +0.000 A 
ATOM      9 CL   UNL     1     -50.946 -43.389 -74.586  0.00  0.00    +0.000 Cl
ATOM     10  C   UNL     1     -53.021 -42.081 -75.862  0.00  0.00    +0.000 A 
ATOM     11  C   UNL     1     -54.011 -43.069 -75.393  0.00  0.00    +0.000 A 
ATOM     12  O   UNL     1     -53.905 -43.623 -74.306  0.00  0.00    +0.000 OA
ATOM     13  C   UNL     1     -55.211 -43.326 -76.256  0.00  0.00    +0.000 A 
ATOM     14  H   UNL     1     -55.183 -40.468 -77.770  0.00  0.00    +0.000 HD
ENDROOT
BRANCH   1  15
ATOM     15  S   UNL     1     -57.061 -42.249 -78.071  0.00  0.00    +0.000 S 
ATOM     16  O   UNL     1     -56.740 -41.132 -79.027  0.00  0.00    +0.000 OA
BRANCH  15  17
ATOM     17  C   UNL     1     -58.602 -41.806 -77.216  0.00  0.00    +0.000 C 
BRANCH  17  21
ATOM     18  C   UNL     1     -59.067 -41.509 -72.126  0.00  0.00    +0.000 C 
ATOM     19  C   UNL     1     -58.799 -41.430 -73.574  0.00  0.00    +0.000 A 
ATOM     20  C   UNL     1     -59.156 -42.185 -74.666  0.00  0.00    +0.000 A 
ATOM     21  C   UNL     1     -58.629 -41.481 -75.771  0.00  0.00    +0.000 A 
ATOM     22  N   UNL     1     -57.937 -40.405 -75.359  0.00  0.00    +0.000 NA
ATOM     23  O   UNL     1     -58.048 -40.377 -73.984  0.00  0.00    +0.000 OA
ENDBRANCH  17  21
ENDBRANCH  15  17
ENDBRANCH   1  15
BRANCH  13  24
ATOM     24  C   UNL     1     -55.554 -44.771 -76.391  0.00  0.00    +0.000 C 
ATOM     25  O   UNL     1     -56.710 -45.144 -76.302  0.00  0.00    +0.000 OA
BRANCH  24  26
ATOM     26  C   UNL     1     -54.474 -45.733 -76.684  0.00  0.00    +0.000 C 
ATOM     27  C   UNL     1     -54.814 -47.186 -76.893  0.00  0.00    +0.000 C 
ATOM     28  C   UNL     1     -54.055 -46.771 -75.670  0.00  0.00    +0.000 C 
ENDBRANCH  24  26
ENDBRANCH  13  24
TORSDOF 5
