MODEL 1
REMARK VINA RESULT:    -6.719      0.000      0.000
REMARK INTER + INTRA:          -8.935
REMARK INTER:                  -8.290
REMARK INTRA:                  -0.644
REMARK UNBOUND:                -0.644
REMARK  Name = 
REMARK  6 active torsions:
REMARK  status: ('A' for Active; 'I' for Inactive)
REMARK    1  A    between atoms: C_1  and  C_2
REMARK    2  A    between atoms: C_2  and  C_4
REMARK    3  A    between atoms: C_5  and  S_6
REMARK    4  A    between atoms: S_6  and  C_8
REMARK    5  A    between atoms: C_8  and  C_9
REMARK    6  A    between atoms: C_11  and  C_12
REMARK                            x       y       z     vdW  Elec       q    Type
REMARK                         _______ _______ _______ _____ _____    ______ ____
ROOT
ATOM      1  C   UNL     1     -56.033 -42.651 -77.275  0.00  0.00    +0.000 A 
ATOM      2  C   UNL     1     -55.146 -43.384 -76.565  0.00  0.00    +0.000 A 
ATOM      3  N   UNL     1     -55.189 -44.762 -76.489  0.00  0.00    +0.000 N 
ATOM      4  C   UNL     1     -56.247 -45.522 -77.015  0.00  0.00    +0.000 A 
ATOM      5  C   UNL     1     -56.261 -46.924 -76.890  0.00  0.00    +0.000 A 
ATOM      6 BR   UNL     1     -54.882 -47.837 -75.955  0.00  0.00    +0.000 Br
ATOM      7  C   UNL     1     -57.282 -47.686 -77.447  0.00  0.00    +0.000 A 
ATOM      8  C   UNL     1     -58.306 -47.051 -78.151  0.00  0.00    +0.000 A 
ATOM      9  C   UNL     1     -58.304 -45.661 -78.308  0.00  0.00    +0.000 A 
ATOM     10 CL   UNL     1     -59.652 -45.022 -79.185  0.00  0.00    +0.000 Cl
ATOM     11  C   UNL     1     -57.257 -44.892 -77.762  0.00  0.00    +0.000 A 
ATOM     12  C   UNL     1     -57.162 -43.415 -77.917  0.00  0.00    +0.000 A 
ATOM     13  O   UNL     1     -58.026 -42.812 -78.539  0.00  0.00    +0.000 OA
ATOM     14  H   UNL     1     -54.714 -45.173 -75.682  0.00  0.00    +0.000 HD
ENDROOT
BRANCH   1  16
ATOM     15  C   UNL     1     -55.215 -40.546 -78.575  0.00  0.00    +0.000 C 
ATOM     16  C   UNL     1     -55.982 -41.150 -77.419  0.00  0.00    +0.000 C 
ATOM     17  O   UNL     1     -56.536 -40.404 -76.612  0.00  0.00    +0.000 OA
ENDBRANCH   1  16
BRANCH   2  18
ATOM     18  S   UNL     1     -53.897 -42.594 -75.494  0.00  0.00    +0.000 S 
ATOM     19  O   UNL     1     -53.387 -43.737 -74.656  0.00  0.00    +0.000 OA
BRANCH  18  20
ATOM     20  C   UNL     1     -52.597 -42.266 -76.739  0.00  0.00    +0.000 C 
BRANCH  20  21
ATOM     21  C   UNL     1     -51.540 -41.366 -76.190  0.00  0.00    +0.000 A 
ATOM     22  C   UNL     1     -51.392 -39.962 -76.344  0.00  0.00    +0.000 A 
ATOM     23  C   UNL     1     -50.276 -39.649 -75.607  0.00  0.00    +0.000 A 
ATOM     24  C   UNL     1     -49.533 -38.406 -75.328  0.00  0.00    +0.000 C 
ATOM     25  O   UNL     1     -49.794 -40.782 -75.030  0.00  0.00    +0.000 OA
ATOM     26  N   UNL     1     -50.588 -41.859 -75.386  0.00  0.00    +0.000 NA
ENDBRANCH  20  21
ENDBRANCH  18  20
ENDBRANCH   2  18
TORSDOF 4
ENDMDL
MODEL 2
REMARK VINA RESULT:    -6.604      3.161      3.871
REMARK INTER + INTRA:          -8.792
REMARK INTER:                  -7.934
REMARK INTRA:                  -0.858
REMARK UNBOUND:                -0.644
REMARK  Name = 
REMARK  6 active torsions:
REMARK  status: ('A' for Active; 'I' for Inactive)
REMARK    1  A    between atoms: C_1  and  C_2
REMARK    2  A    between atoms: C_2  and  C_4
REMARK    3  A    between atoms: C_5  and  S_6
REMARK    4  A    between atoms: S_6  and  C_8
REMARK    5  A    between atoms: C_8  and  C_9
REMARK    6  A    between atoms: C_11  and  C_12
REMARK                            x       y       z     vdW  Elec       q    Type
REMARK                         _______ _______ _______ _____ _____    ______ ____
ROOT
ATOM      1  C   UNL     1     -56.499 -41.586 -77.349  0.00  0.00    +0.000 A 
ATOM      2  C   UNL     1     -55.171 -41.835 -77.351  0.00  0.00    +0.000 A 
ATOM      3  N   UNL     1     -54.416 -41.919 -78.504  0.00  0.00    +0.000 N 
ATOM      4  C   UNL     1     -54.983 -41.905 -79.790  0.00  0.00    +0.000 A 
ATOM      5  C   UNL     1     -54.176 -42.020 -80.937  0.00  0.00    +0.000 A 
ATOM      6 BR   UNL     1     -52.297 -42.257 -80.792  0.00  0.00    +0.000 Br
ATOM      7  C   UNL     1     -54.726 -41.962 -82.213  0.00  0.00    +0.000 A 
ATOM      8  C   UNL     1     -56.101 -41.777 -82.359  0.00  0.00    +0.000 A 
ATOM      9  C   UNL     1     -56.923 -41.639 -81.236  0.00  0.00    +0.000 A 
ATOM     10 CL   UNL     1     -58.607 -41.440 -81.580  0.00  0.00    +0.000 Cl
ATOM     11  C   UNL     1     -56.361 -41.675 -79.944  0.00  0.00    +0.000 A 
ATOM     12  C   UNL     1     -57.160 -41.498 -78.700  0.00  0.00    +0.000 A 
ATOM     13  O   UNL     1     -58.368 -41.317 -78.775  0.00  0.00    +0.000 OA
ATOM     14  H   UNL     1     -53.538 -42.437 -78.419  0.00  0.00    +0.000 HD
ENDROOT
BRANCH   1  16
ATOM     15  C   UNL     1     -58.081 -42.643 -75.569  0.00  0.00    +0.000 C 
ATOM     16  C   UNL     1     -57.340 -41.438 -76.106  0.00  0.00    +0.000 C 
ATOM     17  O   UNL     1     -57.452 -40.358 -75.525  0.00  0.00    +0.000 OA
ENDBRANCH   1  16
BRANCH   2  18
ATOM     18  S   UNL     1     -54.277 -42.256 -75.817  0.00  0.00    +0.000 S 
ATOM     19  O   UNL     1     -54.722 -43.667 -75.533  0.00  0.00    +0.000 OA
BRANCH  18  20
ATOM     20  C   UNL     1     -52.579 -42.391 -76.485  0.00  0.00    +0.000 C 
BRANCH  20  21
ATOM     21  C   UNL     1     -51.791 -41.155 -76.206  0.00  0.00    +0.000 A 
ATOM     22  C   UNL     1     -50.533 -41.021 -75.559  0.00  0.00    +0.000 A 
ATOM     23  C   UNL     1     -50.263 -39.675 -75.604  0.00  0.00    +0.000 A 
ATOM     24  C   UNL     1     -49.160 -38.824 -75.119  0.00  0.00    +0.000 C 
ATOM     25  O   UNL     1     -51.276 -39.040 -76.251  0.00  0.00    +0.000 OA
ATOM     26  N   UNL     1     -52.231 -39.965 -76.638  0.00  0.00    +0.000 NA
ENDBRANCH  20  21
ENDBRANCH  18  20
ENDBRANCH   2  18
TORSDOF 4
ENDMDL
MODEL 3
REMARK VINA RESULT:    -6.429      4.292      6.322
REMARK INTER + INTRA:          -8.576
REMARK INTER:                  -7.829
REMARK INTRA:                  -0.747
REMARK UNBOUND:                -0.644
REMARK  Name = 
REMARK  6 active torsions:
REMARK  status: ('A' for Active; 'I' for Inactive)
REMARK    1  A    between atoms: C_1  and  C_2
REMARK    2  A    between atoms: C_2  and  C_4
REMARK    3  A    between atoms: C_5  and  S_6
REMARK    4  A    between atoms: S_6  and  C_8
REMARK    5  A    between atoms: C_8  and  C_9
REMARK    6  A    between atoms: C_11  and  C_12
REMARK                            x       y       z     vdW  Elec       q    Type
REMARK                         _______ _______ _______ _____ _____    ______ ____
ROOT
ATOM      1  C   UNL     1     -53.393 -41.490 -77.967  0.00  0.00    +0.000 A 
ATOM      2  C   UNL     1     -54.715 -41.279 -78.159  0.00  0.00    +0.000 A 
ATOM      3  N   UNL     1     -55.348 -41.484 -79.368  0.00  0.00    +0.000 N 
ATOM      4  C   UNL     1     -54.654 -41.786 -80.552  0.00  0.00    +0.000 A 
ATOM      5  C   UNL     1     -55.341 -41.961 -81.768  0.00  0.00    +0.000 A 
ATOM      6 BR   UNL     1     -57.225 -41.740 -81.869  0.00  0.00    +0.000 Br
ATOM      7  C   UNL     1     -54.664 -42.304 -82.934  0.00  0.00    +0.000 A 
ATOM      8  C   UNL     1     -53.281 -42.486 -82.896  0.00  0.00    +0.000 A 
ATOM      9  C   UNL     1     -52.577 -42.339 -81.696  0.00  0.00    +0.000 A 
ATOM     10 CL   UNL     1     -50.868 -42.575 -81.816  0.00  0.00    +0.000 Cl
ATOM     11  C   UNL     1     -53.267 -42.014 -80.511  0.00  0.00    +0.000 A 
ATOM     12  C   UNL     1     -52.599 -41.876 -79.188  0.00  0.00    +0.000 A 
ATOM     13  O   UNL     1     -51.389 -42.042 -79.098  0.00  0.00    +0.000 OA
ATOM     14  H   UNL     1     -56.230 -40.982 -79.494  0.00  0.00    +0.000 HD
ENDROOT
BRANCH   1  16
ATOM     15  C   UNL     1     -52.642 -42.487 -75.680  0.00  0.00    +0.000 C 
ATOM     16  C   UNL     1     -52.682 -41.324 -76.647  0.00  0.00    +0.000 C 
ATOM     17  O   UNL     1     -52.147 -40.261 -76.330  0.00  0.00    +0.000 OA
ENDBRANCH   1  16
BRANCH   2  18
ATOM     18  S   UNL     1     -55.758 -40.531 -76.863  0.00  0.00    +0.000 S 
ATOM     19  O   UNL     1     -56.947 -40.015 -77.630  0.00  0.00    +0.000 OA
BRANCH  18  20
ATOM     20  C   UNL     1     -56.328 -42.052 -76.020  0.00  0.00    +0.000 C 
BRANCH  20  21
ATOM     21  C   UNL     1     -56.639 -41.788 -74.584  0.00  0.00    +0.000 A 
ATOM     22  C   UNL     1     -56.036 -42.338 -73.421  0.00  0.00    +0.000 A 
ATOM     23  C   UNL     1     -56.680 -41.726 -72.375  0.00  0.00    +0.000 A 
ATOM     24  C   UNL     1     -56.590 -41.818 -70.906  0.00  0.00    +0.000 C 
ATOM     25  O   UNL     1     -57.596 -40.850 -72.869  0.00  0.00    +0.000 OA
ATOM     26  N   UNL     1     -57.567 -40.880 -74.253  0.00  0.00    +0.000 NA
ENDBRANCH  20  21
ENDBRANCH  18  20
ENDBRANCH   2  18
TORSDOF 4
ENDMDL
MODEL 4
REMARK VINA RESULT:    -6.187      3.753      6.294
REMARK INTER + INTRA:          -8.278
REMARK INTER:                  -7.230
REMARK INTRA:                  -1.048
REMARK UNBOUND:                -0.644
REMARK  Name = 
REMARK  6 active torsions:
REMARK  status: ('A' for Active; 'I' for Inactive)
REMARK    1  A    between atoms: C_1  and  C_2
REMARK    2  A    between atoms: C_2  and  C_4
REMARK    3  A    between atoms: C_5  and  S_6
REMARK    4  A    between atoms: S_6  and  C_8
REMARK    5  A    between atoms: C_8  and  C_9
REMARK    6  A    between atoms: C_11  and  C_12
REMARK                            x       y       z     vdW  Elec       q    Type
REMARK                         _______ _______ _______ _____ _____    ______ ____
ROOT
ATOM      1  C   UNL     1     -53.413 -41.816 -77.896  0.00  0.00    +0.000 A 
ATOM      2  C   UNL     1     -54.755 -41.762 -78.049  0.00  0.00    +0.000 A 
ATOM      3  N   UNL     1     -55.393 -42.003 -79.249  0.00  0.00    +0.000 N 
ATOM      4  C   UNL     1     -54.701 -42.176 -80.460  0.00  0.00    +0.000 A 
ATOM      5  C   UNL     1     -55.396 -42.393 -81.664  0.00  0.00    +0.000 A 
ATOM      6 BR   UNL     1     -57.295 -42.402 -81.712  0.00  0.00    +0.000 Br
ATOM      7  C   UNL     1     -54.716 -42.610 -82.858  0.00  0.00    +0.000 A 
ATOM      8  C   UNL     1     -53.320 -42.622 -82.860  0.00  0.00    +0.000 A 
ATOM      9  C   UNL     1     -52.606 -42.430 -81.673  0.00  0.00    +0.000 A 
ATOM     10 CL   UNL     1     -50.884 -42.449 -81.843  0.00  0.00    +0.000 Cl
ATOM     11  C   UNL     1     -53.296 -42.233 -80.460  0.00  0.00    +0.000 A 
ATOM     12  C   UNL     1     -52.612 -42.059 -79.150  0.00  0.00    +0.000 A 
ATOM     13  O   UNL     1     -51.390 -42.078 -79.095  0.00  0.00    +0.000 OA
ATOM     14  H   UNL     1     -56.333 -41.609 -79.335  0.00  0.00    +0.000 HD
ENDROOT
BRANCH   1  16
ATOM     15  C   UNL     1     -52.532 -42.776 -75.641  0.00  0.00    +0.000 C 
ATOM     16  C   UNL     1     -52.691 -41.608 -76.589  0.00  0.00    +0.000 C 
ATOM     17  O   UNL     1     -52.241 -40.508 -76.266  0.00  0.00    +0.000 OA
ENDBRANCH   1  16
BRANCH   2  18
ATOM     18  S   UNL     1     -55.845 -41.193 -76.701  0.00  0.00    +0.000 S 
ATOM     19  O   UNL     1     -56.557 -40.012 -77.306  0.00  0.00    +0.000 OA
BRANCH  18  20
ATOM     20  C   UNL     1     -57.060 -42.561 -76.697  0.00  0.00    +0.000 C 
BRANCH  20  21
ATOM     21  C   UNL     1     -56.377 -43.888 -76.672  0.00  0.00    +0.000 A 
ATOM     22  C   UNL     1     -55.701 -44.527 -75.598  0.00  0.00    +0.000 A 
ATOM     23  C   UNL     1     -55.296 -45.734 -76.114  0.00  0.00    +0.000 A 
ATOM     24  C   UNL     1     -54.541 -46.885 -75.586  0.00  0.00    +0.000 C 
ATOM     25  O   UNL     1     -55.715 -45.828 -77.404  0.00  0.00    +0.000 OA
ATOM     26  N   UNL     1     -56.400 -44.677 -77.755  0.00  0.00    +0.000 NA
ENDBRANCH  20  21
ENDBRANCH  18  20
ENDBRANCH   2  18
TORSDOF 4
ENDMDL
MODEL 5
REMARK VINA RESULT:    -6.167     13.331     14.859
REMARK INTER + INTRA:          -8.253
REMARK INTER:                  -7.416
REMARK INTRA:                  -0.837
REMARK UNBOUND:                -0.644
REMARK  Name = 
REMARK  6 active torsions:
REMARK  status: ('A' for Active; 'I' for Inactive)
REMARK    1  A    between atoms: C_1  and  C_2
REMARK    2  A    between atoms: C_2  and  C_4
REMARK    3  A    between atoms: C_5  and  S_6
REMARK    4  A    between atoms: S_6  and  C_8
REMARK    5  A    between atoms: C_8  and  C_9
REMARK    6  A    between atoms: C_11  and  C_12
REMARK                            x       y       z     vdW  Elec       q    Type
REMARK                         _______ _______ _______ _____ _____    ______ ____
ROOT
ATOM      1  C   UNL     1     -58.390 -39.396 -62.434  0.00  0.00    +0.000 A 
ATOM      2  C   UNL     1     -57.713 -40.398 -63.039  0.00  0.00    +0.000 A 
ATOM      3  N   UNL     1     -56.425 -40.264 -63.518  0.00  0.00    +0.000 N 
ATOM      4  C   UNL     1     -55.752 -39.031 -63.561  0.00  0.00    +0.000 A 
ATOM      5  C   UNL     1     -54.449 -38.938 -64.083  0.00  0.00    +0.000 A 
ATOM      6 BR   UNL     1     -53.571 -40.460 -64.804  0.00  0.00    +0.000 Br
ATOM      7  C   UNL     1     -53.760 -37.730 -64.087  0.00  0.00    +0.000 A 
ATOM      8  C   UNL     1     -54.368 -36.591 -63.555  0.00  0.00    +0.000 A 
ATOM      9  C   UNL     1     -55.655 -36.662 -63.010  0.00  0.00    +0.000 A 
ATOM     10 CL   UNL     1     -56.279 -35.164 -62.412  0.00  0.00    +0.000 Cl
ATOM     11  C   UNL     1     -56.342 -37.892 -62.987  0.00  0.00    +0.000 A 
ATOM     12  C   UNL     1     -57.697 -38.059 -62.392  0.00  0.00    +0.000 A 
ATOM     13  O   UNL     1     -58.267 -37.095 -61.898  0.00  0.00    +0.000 OA
ATOM     14  H   UNL     1     -56.151 -40.937 -64.237  0.00  0.00    +0.000 HD
ENDROOT
BRANCH   1  16
ATOM     15  C   UNL     1     -59.937 -40.003 -60.428  0.00  0.00    +0.000 C 
ATOM     16  C   UNL     1     -59.776 -39.527 -61.855  0.00  0.00    +0.000 C 
ATOM     17  O   UNL     1     -60.781 -39.271 -62.519  0.00  0.00    +0.000 OA
ENDBRANCH   1  16
BRANCH   2  18
ATOM     18  S   UNL     1     -58.516 -41.989 -63.431  0.00  0.00    +0.000 S 
ATOM     19  O   UNL     1     -59.394 -41.654 -64.607  0.00  0.00    +0.000 OA
BRANCH  18  20
ATOM     20  C   UNL     1     -57.079 -42.890 -64.119  0.00  0.00    +0.000 C 
BRANCH  20  21
ATOM     21  C   UNL     1     -57.138 -42.940 -65.609  0.00  0.00    +0.000 A 
ATOM     22  C   UNL     1     -56.519 -42.085 -66.559  0.00  0.00    +0.000 A 
ATOM     23  C   UNL     1     -56.878 -42.605 -67.779  0.00  0.00    +0.000 A 
ATOM     24  C   UNL     1     -56.619 -42.230 -69.181  0.00  0.00    +0.000 C 
ATOM     25  O   UNL     1     -57.644 -43.710 -67.581  0.00  0.00    +0.000 OA
ATOM     26  N   UNL     1     -57.802 -43.929 -66.223  0.00  0.00    +0.000 NA
ENDBRANCH  20  21
ENDBRANCH  18  20
ENDBRANCH   2  18
TORSDOF 4
ENDMDL
MODEL 6
REMARK VINA RESULT:    -6.155      3.336      5.026
REMARK INTER + INTRA:          -8.238
REMARK INTER:                  -7.436
REMARK INTRA:                  -0.802
REMARK UNBOUND:                -0.644
REMARK  Name = 
REMARK  6 active torsions:
REMARK  status: ('A' for Active; 'I' for Inactive)
REMARK    1  A    between atoms: C_1  and  C_2
REMARK    2  A    between atoms: C_2  and  C_4
REMARK    3  A    between atoms: C_5  and  S_6
REMARK    4  A    between atoms: S_6  and  C_8
REMARK    5  A    between atoms: C_8  and  C_9
REMARK    6  A    between atoms: C_11  and  C_12
REMARK                            x       y       z     vdW  Elec       q    Type
REMARK                         _______ _______ _______ _____ _____    ______ ____
ROOT
ATOM      1  C   UNL     1     -55.277 -44.033 -76.193  0.00  0.00    +0.000 A 
ATOM      2  C   UNL     1     -56.428 -43.505 -76.666  0.00  0.00    +0.000 A 
ATOM      3  N   UNL     1     -57.475 -44.270 -77.140  0.00  0.00    +0.000 N 
ATOM      4  C   UNL     1     -57.384 -45.660 -77.320  0.00  0.00    +0.000 A 
ATOM      5  C   UNL     1     -58.469 -46.395 -77.833  0.00  0.00    +0.000 A 
ATOM      6 BR   UNL     1     -60.078 -45.530 -78.356  0.00  0.00    +0.000 Br
ATOM      7  C   UNL     1     -58.402 -47.777 -77.971  0.00  0.00    +0.000 A 
ATOM      8  C   UNL     1     -57.240 -48.449 -77.586  0.00  0.00    +0.000 A 
ATOM      9  C   UNL     1     -56.155 -47.744 -77.054  0.00  0.00    +0.000 A 
ATOM     10 CL   UNL     1     -54.781 -48.714 -76.647  0.00  0.00    +0.000 Cl
ATOM     11  C   UNL     1     -56.234 -46.347 -76.894  0.00  0.00    +0.000 A 
ATOM     12  C   UNL     1     -55.140 -45.529 -76.301  0.00  0.00    +0.000 A 
ATOM     13  O   UNL     1     -54.106 -46.073 -75.933  0.00  0.00    +0.000 OA
ATOM     14  H   UNL     1     -58.121 -43.789 -77.770  0.00  0.00    +0.000 HD
ENDROOT
BRANCH   1  16
ATOM     15  C   UNL     1     -53.077 -42.685 -76.555  0.00  0.00    +0.000 C 
ATOM     16  C   UNL     1     -54.137 -43.227 -75.621  0.00  0.00    +0.000 C 
ATOM     17  O   UNL     1     -54.039 -43.012 -74.413  0.00  0.00    +0.000 OA
ENDBRANCH   1  16
BRANCH   2  18
ATOM     18  S   UNL     1     -56.636 -41.705 -76.876  0.00  0.00    +0.000 S 
ATOM     19  O   UNL     1     -57.104 -41.574 -78.302  0.00  0.00    +0.000 OA
BRANCH  18  20
ATOM     20  C   UNL     1     -58.119 -41.448 -75.836  0.00  0.00    +0.000 C 
BRANCH  20  21
ATOM     21  C   UNL     1     -57.747 -41.257 -74.404  0.00  0.00    +0.000 A 
ATOM     22  C   UNL     1     -57.250 -42.208 -73.473  0.00  0.00    +0.000 A 
ATOM     23  C   UNL     1     -57.047 -41.490 -72.320  0.00  0.00    +0.000 A 
ATOM     24  C   UNL     1     -56.571 -41.821 -70.964  0.00  0.00    +0.000 C 
ATOM     25  O   UNL     1     -57.378 -40.190 -72.543  0.00  0.00    +0.000 OA
ATOM     26  N   UNL     1     -57.809 -40.038 -73.850  0.00  0.00    +0.000 NA
ENDBRANCH  20  21
ENDBRANCH  18  20
ENDBRANCH   2  18
TORSDOF 4
ENDMDL
MODEL 7
REMARK VINA RESULT:    -6.079      3.911      6.363
REMARK INTER + INTRA:          -8.145
REMARK INTER:                  -7.345
REMARK INTRA:                  -0.800
REMARK UNBOUND:                -0.644
REMARK  Name = 
REMARK  6 active torsions:
REMARK  status: ('A' for Active; 'I' for Inactive)
REMARK    1  A    between atoms: C_1  and  C_2
REMARK    2  A    between atoms: C_2  and  C_4
REMARK    3  A    between atoms: C_5  and  S_6
REMARK    4  A    between atoms: S_6  and  C_8
REMARK    5  A    between atoms: C_8  and  C_9
REMARK    6  A    between atoms: C_11  and  C_12
REMARK                            x       y       z     vdW  Elec       q    Type
REMARK                         _______ _______ _______ _____ _____    ______ ____
ROOT
ATOM      1  C   UNL     1     -55.268 -44.042 -77.523  0.00  0.00    +0.000 A 
ATOM      2  C   UNL     1     -55.536 -42.901 -78.198  0.00  0.00    +0.000 A 
ATOM      3  N   UNL     1     -54.734 -41.779 -78.140  0.00  0.00    +0.000 N 
ATOM      4  C   UNL     1     -53.648 -41.662 -77.256  0.00  0.00    +0.000 A 
ATOM      5  C   UNL     1     -52.874 -40.487 -77.214  0.00  0.00    +0.000 A 
ATOM      6 BR   UNL     1     -53.302 -38.993 -78.306  0.00  0.00    +0.000 Br
ATOM      7  C   UNL     1     -51.770 -40.382 -76.374  0.00  0.00    +0.000 A 
ATOM      8  C   UNL     1     -51.418 -41.464 -75.566  0.00  0.00    +0.000 A 
ATOM      9  C   UNL     1     -52.158 -42.651 -75.604  0.00  0.00    +0.000 A 
ATOM     10 CL   UNL     1     -51.610 -43.890 -74.528  0.00  0.00    +0.000 Cl
ATOM     11  C   UNL     1     -53.262 -42.764 -76.473  0.00  0.00    +0.000 A 
ATOM     12  C   UNL     1     -54.077 -44.003 -76.601  0.00  0.00    +0.000 A 
ATOM     13  O   UNL     1     -53.799 -44.985 -75.926  0.00  0.00    +0.000 OA
ATOM     14  H   UNL     1     -55.190 -40.899 -78.391  0.00  0.00    +0.000 HD
ENDROOT
BRANCH   1  16
ATOM     15  C   UNL     1     -55.708 -46.373 -78.599  0.00  0.00    +0.000 C 
ATOM     16  C   UNL     1     -56.096 -45.300 -77.606  0.00  0.00    +0.000 C 
ATOM     17  O   UNL     1     -57.088 -45.469 -76.896  0.00  0.00    +0.000 OA
ENDBRANCH   1  16
BRANCH   2  18
ATOM     18  S   UNL     1     -57.093 -42.685 -79.124  0.00  0.00    +0.000 S 
ATOM     19  O   UNL     1     -57.330 -41.199 -79.061  0.00  0.00    +0.000 OA
BRANCH  18  20
ATOM     20  C   UNL     1     -56.485 -43.023 -80.817  0.00  0.00    +0.000 C 
BRANCH  20  21
ATOM     21  C   UNL     1     -55.052 -42.635 -80.963  0.00  0.00    +0.000 A 
ATOM     22  C   UNL     1     -53.910 -43.465 -81.118  0.00  0.00    +0.000 A 
ATOM     23  C   UNL     1     -52.859 -42.589 -81.241  0.00  0.00    +0.000 A 
ATOM     24  C   UNL     1     -51.402 -42.737 -81.410  0.00  0.00    +0.000 C 
ATOM     25  O   UNL     1     -53.334 -41.316 -81.183  0.00  0.00    +0.000 OA
ATOM     26  N   UNL     1     -54.709 -41.340 -81.019  0.00  0.00    +0.000 NA
ENDBRANCH  20  21
ENDBRANCH  18  20
ENDBRANCH   2  18
TORSDOF 4
ENDMDL
MODEL 8
REMARK VINA RESULT:    -5.974     14.460     15.772
REMARK INTER + INTRA:          -8.015
REMARK INTER:                  -7.287
REMARK INTRA:                  -0.729
REMARK UNBOUND:                -0.644
REMARK  Name = 
REMARK  6 active torsions:
REMARK  status: ('A' for Active; 'I' for Inactive)
REMARK    1  A    between atoms: C_1  and  C_2
REMARK    2  A    between atoms: C_2  and  C_4
REMARK    3  A    between atoms: C_5  and  S_6
REMARK    4  A    between atoms: S_6  and  C_8
REMARK    5  A    between atoms: C_8  and  C_9
REMARK    6  A    between atoms: C_11  and  C_12
REMARK                            x       y       z     vdW  Elec       q    Type
REMARK                         _______ _______ _______ _____ _____    ______ ____
ROOT
ATOM      1  C   UNL     1     -58.472 -39.347 -62.247  0.00  0.00    +0.000 A 
ATOM      2  C   UNL     1     -57.405 -39.852 -62.905  0.00  0.00    +0.000 A 
ATOM      3  N   UNL     1     -56.324 -39.088 -63.299  0.00  0.00    +0.000 N 
ATOM      4  C   UNL     1     -56.300 -37.687 -63.188  0.00  0.00    +0.000 A 
ATOM      5  C   UNL     1     -55.187 -36.947 -63.628  0.00  0.00    +0.000 A 
ATOM      6 BR   UNL     1     -53.699 -37.805 -64.440  0.00  0.00    +0.000 Br
ATOM      7  C   UNL     1     -55.137 -35.565 -63.480  0.00  0.00    +0.000 A 
ATOM      8  C   UNL     1     -56.206 -34.901 -62.877  0.00  0.00    +0.000 A 
ATOM      9  C   UNL     1     -57.316 -35.615 -62.413  0.00  0.00    +0.000 A 
ATOM     10 CL   UNL     1     -58.567 -34.649 -61.711  0.00  0.00    +0.000 Cl
ATOM     11  C   UNL     1     -57.354 -37.018 -62.543  0.00  0.00    +0.000 A 
ATOM     12  C   UNL     1     -58.479 -37.854 -62.041  0.00  0.00    +0.000 A 
ATOM     13  O   UNL     1     -59.434 -37.322 -61.490  0.00  0.00    +0.000 OA
ATOM     14  H   UNL     1     -55.765 -39.476 -64.062  0.00  0.00    +0.000 HD
ENDROOT
BRANCH   1  16
ATOM     15  C   UNL     1     -59.563 -40.828 -60.402  0.00  0.00    +0.000 C 
ATOM     16  C   UNL     1     -59.642 -40.164 -61.759  0.00  0.00    +0.000 C 
ATOM     17  O   UNL     1     -60.654 -40.317 -62.443  0.00  0.00    +0.000 OA
ENDBRANCH   1  16
BRANCH   2  18
ATOM     18  S   UNL     1     -57.376 -41.580 -63.489  0.00  0.00    +0.000 S 
ATOM     19  O   UNL     1     -58.422 -41.599 -64.572  0.00  0.00    +0.000 OA
BRANCH  18  20
ATOM     20  C   UNL     1     -55.762 -41.580 -64.351  0.00  0.00    +0.000 C 
BRANCH  20  21
ATOM     21  C   UNL     1     -54.810 -42.538 -63.715  0.00  0.00    +0.000 A 
ATOM     22  C   UNL     1     -55.084 -43.633 -62.852  0.00  0.00    +0.000 A 
ATOM     23  C   UNL     1     -53.854 -44.187 -62.596  0.00  0.00    +0.000 A 
ATOM     24  C   UNL     1     -53.378 -45.321 -61.780  0.00  0.00    +0.000 C 
ATOM     25  O   UNL     1     -52.903 -43.489 -63.272  0.00  0.00    +0.000 OA
ATOM     26  N   UNL     1     -53.499 -42.461 -63.982  0.00  0.00    +0.000 NA
ENDBRANCH  20  21
ENDBRANCH  18  20
ENDBRANCH   2  18
TORSDOF 4
ENDMDL
MODEL 9
REMARK VINA RESULT:    -5.757      3.688      7.351
REMARK INTER + INTRA:          -7.747
REMARK INTER:                  -7.030
REMARK INTRA:                  -0.717
REMARK UNBOUND:                -0.644
REMARK  Name = 
REMARK  6 active torsions:
REMARK  status: ('A' for Active; 'I' for Inactive)
REMARK    1  A    between atoms: C_1  and  C_2
REMARK    2  A    between atoms: C_2  and  C_4
REMARK    3  A    between atoms: C_5  and  S_6
REMARK    4  A    between atoms: S_6  and  C_8
REMARK    5  A    between atoms: C_8  and  C_9
REMARK    6  A    between atoms: C_11  and  C_12
REMARK                            x       y       z     vdW  Elec       q    Type
REMARK                         _______ _______ _______ _____ _____    ______ ____
ROOT
ATOM      1  C   UNL     1     -54.116 -42.801 -76.798  0.00  0.00    +0.000 A 
ATOM      2  C   UNL     1     -54.509 -43.788 -77.635  0.00  0.00    +0.000 A 
ATOM      3  N   UNL     1     -54.630 -43.621 -79.000  0.00  0.00    +0.000 N 
ATOM      4  C   UNL     1     -54.505 -42.372 -79.630  0.00  0.00    +0.000 A 
ATOM      5  C   UNL     1     -54.663 -42.246 -81.023  0.00  0.00    +0.000 A 
ATOM      6 BR   UNL     1     -55.110 -43.748 -82.097  0.00  0.00    +0.000 Br
ATOM      7  C   UNL     1     -54.496 -41.021 -81.659  0.00  0.00    +0.000 A 
ATOM      8  C   UNL     1     -54.156 -39.897 -80.904  0.00  0.00    +0.000 A 
ATOM      9  C   UNL     1     -53.972 -39.999 -79.521  0.00  0.00    +0.000 A 
ATOM     10 CL   UNL     1     -53.576 -38.516 -78.724  0.00  0.00    +0.000 Cl
ATOM     11  C   UNL     1     -54.119 -41.246 -78.882  0.00  0.00    +0.000 A 
ATOM     12  C   UNL     1     -53.904 -41.446 -77.422  0.00  0.00    +0.000 A 
ATOM     13  O   UNL     1     -53.589 -40.496 -76.719  0.00  0.00    +0.000 OA
ATOM     14  H   UNL     1     -55.244 -44.290 -79.472  0.00  0.00    +0.000 HD
ENDROOT
BRANCH   1  16
ATOM     15  C   UNL     1     -55.068 -42.629 -74.379  0.00  0.00    +0.000 C 
ATOM     16  C   UNL     1     -53.924 -42.966 -75.311  0.00  0.00    +0.000 C 
ATOM     17  O   UNL     1     -52.857 -43.353 -74.835  0.00  0.00    +0.000 OA
ENDBRANCH   1  16
BRANCH   2  18
ATOM     18  S   UNL     1     -55.084 -45.400 -77.004  0.00  0.00    +0.000 S 
ATOM     19  O   UNL     1     -56.484 -45.108 -76.531  0.00  0.00    +0.000 OA
BRANCH  18  20
ATOM     20  C   UNL     1     -55.268 -46.296 -78.589  0.00  0.00    +0.000 C 
BRANCH  20  21
ATOM     21  C   UNL     1     -56.227 -47.432 -78.458  0.00  0.00    +0.000 A 
ATOM     22  C   UNL     1     -56.295 -48.436 -77.456  0.00  0.00    +0.000 A 
ATOM     23  C   UNL     1     -57.381 -49.201 -77.804  0.00  0.00    +0.000 A 
ATOM     24  C   UNL     1     -58.025 -50.402 -77.242  0.00  0.00    +0.000 C 
ATOM     25  O   UNL     1     -57.944 -48.684 -78.929  0.00  0.00    +0.000 OA
ATOM     26  N   UNL     1     -57.230 -47.570 -79.337  0.00  0.00    +0.000 NA
ENDBRANCH  20  21
ENDBRANCH  18  20
ENDBRANCH   2  18
TORSDOF 4
ENDMDL
MODEL 10
REMARK VINA RESULT:    -5.718      3.369      6.049
REMARK INTER + INTRA:          -7.699
REMARK INTER:                  -6.932
REMARK INTRA:                  -0.767
REMARK UNBOUND:                -0.644
REMARK  Name = 
REMARK  6 active torsions:
REMARK  status: ('A' for Active; 'I' for Inactive)
REMARK    1  A    between atoms: C_1  and  C_2
REMARK    2  A    between atoms: C_2  and  C_4
REMARK    3  A    between atoms: C_5  and  S_6
REMARK    4  A    between atoms: S_6  and  C_8
REMARK    5  A    between atoms: C_8  and  C_9
REMARK    6  A    between atoms: C_11  and  C_12
REMARK                            x       y       z     vdW  Elec       q    Type
REMARK                         _______ _______ _______ _____ _____    ______ ____
ROOT
ATOM      1  C   UNL     1     -55.753 -42.890 -79.500  0.00  0.00    +0.000 A 
ATOM      2  C   UNL     1     -55.325 -43.784 -78.580  0.00  0.00    +0.000 A 
ATOM      3  N   UNL     1     -54.440 -43.468 -77.569  0.00  0.00    +0.000 N 
ATOM      4  C   UNL     1     -53.782 -42.229 -77.491  0.00  0.00    +0.000 A 
ATOM      5  C   UNL     1     -52.867 -41.961 -76.455  0.00  0.00    +0.000 A 
ATOM      6 BR   UNL     1     -52.440 -43.282 -75.159  0.00  0.00    +0.000 Br
ATOM      7  C   UNL     1     -52.246 -40.721 -76.346  0.00  0.00    +0.000 A 
ATOM      8  C   UNL     1     -52.543 -39.721 -77.273  0.00  0.00    +0.000 A 
ATOM      9  C   UNL     1     -53.465 -39.955 -78.300  0.00  0.00    +0.000 A 
ATOM     10 CL   UNL     1     -53.709 -38.626 -79.381  0.00  0.00    +0.000 Cl
ATOM     11  C   UNL     1     -54.110 -41.204 -78.395  0.00  0.00    +0.000 A 
ATOM     12  C   UNL     1     -55.130 -41.519 -79.433  0.00  0.00    +0.000 A 
ATOM     13  O   UNL     1     -55.438 -40.672 -80.260  0.00  0.00    +0.000 OA
ATOM     14  H   UNL     1     -53.932 -44.258 -77.165  0.00  0.00    +0.000 HD
ENDROOT
BRANCH   1  16
ATOM     15  C   UNL     1     -56.262 -43.598 -81.955  0.00  0.00    +0.000 C 
ATOM     16  C   UNL     1     -56.757 -43.191 -80.584  0.00  0.00    +0.000 C 
ATOM     17  O   UNL     1     -57.969 -43.100 -80.386  0.00  0.00    +0.000 OA
ENDBRANCH   1  16
BRANCH   2  18
ATOM     18  S   UNL     1     -55.755 -45.553 -78.699  0.00  0.00    +0.000 S 
ATOM     19  O   UNL     1     -54.708 -46.222 -77.848  0.00  0.00    +0.000 OA
BRANCH  18  20
ATOM     20  C   UNL     1     -57.288 -45.557 -77.700  0.00  0.00    +0.000 C 
BRANCH  20  21
ATOM     21  C   UNL     1     -57.302 -44.425 -76.728  0.00  0.00    +0.000 A 
ATOM     22  C   UNL     1     -58.168 -43.300 -76.676  0.00  0.00    +0.000 A 
ATOM     23  C   UNL     1     -57.758 -42.599 -75.568  0.00  0.00    +0.000 A 
ATOM     24  C   UNL     1     -58.181 -41.342 -74.923  0.00  0.00    +0.000 C 
ATOM     25  O   UNL     1     -56.729 -43.264 -74.979  0.00  0.00    +0.000 OA
ATOM     26  N   UNL     1     -56.446 -44.413 -75.697  0.00  0.00    +0.000 NA
ENDBRANCH  20  21
ENDBRANCH  18  20
ENDBRANCH   2  18
TORSDOF 4
ENDMDL
MODEL 11
REMARK VINA RESULT:    -5.703     14.684     15.684
REMARK INTER + INTRA:          -7.681
REMARK INTER:                  -7.018
REMARK INTRA:                  -0.663
REMARK UNBOUND:                -0.644
REMARK  Name = 
REMARK  6 active torsions:
REMARK  status: ('A' for Active; 'I' for Inactive)
REMARK    1  A    between atoms: C_1  and  C_2
REMARK    2  A    between atoms: C_2  and  C_4
REMARK    3  A    between atoms: C_5  and  S_6
REMARK    4  A    between atoms: S_6  and  C_8
REMARK    5  A    between atoms: C_8  and  C_9
REMARK    6  A    between atoms: C_11  and  C_12
REMARK                            x       y       z     vdW  Elec       q    Type
REMARK                         _______ _______ _______ _____ _____    ______ ____
ROOT
ATOM      1  C   UNL     1     -58.034 -41.564 -61.094  0.00  0.00    +0.000 A 
ATOM      2  C   UNL     1     -57.348 -42.045 -62.156  0.00  0.00    +0.000 A 
ATOM      3  N   UNL     1     -56.241 -42.861 -62.037  0.00  0.00    +0.000 N 
ATOM      4  C   UNL     1     -55.630 -43.143 -60.804  0.00  0.00    +0.000 A 
ATOM      5  C   UNL     1     -54.485 -43.959 -60.734  0.00  0.00    +0.000 A 
ATOM      6 BR   UNL     1     -53.687 -44.662 -62.308  0.00  0.00    +0.000 Br
ATOM      7  C   UNL     1     -53.902 -44.280 -59.513  0.00  0.00    +0.000 A 
ATOM      8  C   UNL     1     -54.467 -43.791 -58.334  0.00  0.00    +0.000 A 
ATOM      9  C   UNL     1     -55.617 -42.995 -58.374  0.00  0.00    +0.000 A 
ATOM     10 CL   UNL     1     -56.183 -42.448 -56.833  0.00  0.00    +0.000 Cl
ATOM     11  C   UNL     1     -56.220 -42.690 -59.611  0.00  0.00    +0.000 A 
ATOM     12  C   UNL     1     -57.464 -41.883 -59.736  0.00  0.00    +0.000 A 
ATOM     13  O   UNL     1     -58.008 -41.445 -58.731  0.00  0.00    +0.000 OA
ATOM     14  H   UNL     1     -55.618 -42.877 -62.848  0.00  0.00    +0.000 HD
ENDROOT
BRANCH   1  16
ATOM     15  C   UNL     1     -59.137 -39.209 -61.249  0.00  0.00    +0.000 C 
ATOM     16  C   UNL     1     -59.276 -40.714 -61.192  0.00  0.00    +0.000 C 
ATOM     17  O   UNL     1     -60.402 -41.213 -61.211  0.00  0.00    +0.000 OA
ENDBRANCH   1  16
BRANCH   2  18
ATOM     18  S   UNL     1     -57.732 -41.514 -63.858  0.00  0.00    +0.000 S 
ATOM     19  O   UNL     1     -56.810 -40.343 -64.072  0.00  0.00    +0.000 OA
BRANCH  18  20
ATOM     20  C   UNL     1     -56.992 -42.909 -64.783  0.00  0.00    +0.000 C 
BRANCH  20  21
ATOM     21  C   UNL     1     -57.017 -42.654 -66.254  0.00  0.00    +0.000 A 
ATOM     22  C   UNL     1     -56.033 -42.040 -67.073  0.00  0.00    +0.000 A 
ATOM     23  C   UNL     1     -56.554 -42.096 -68.342  0.00  0.00    +0.000 A 
ATOM     24  C   UNL     1     -56.100 -41.643 -69.670  0.00  0.00    +0.000 C 
ATOM     25  O   UNL     1     -57.761 -42.720 -68.297  0.00  0.00    +0.000 OA
ATOM     26  N   UNL     1     -58.051 -43.080 -66.992  0.00  0.00    +0.000 NA
ENDBRANCH  20  21
ENDBRANCH  18  20
ENDBRANCH   2  18
TORSDOF 4
ENDMDL
MODEL 12
REMARK VINA RESULT:    -5.687      2.525      2.857
REMARK INTER + INTRA:          -7.661
REMARK INTER:                  -6.820
REMARK INTRA:                  -0.842
REMARK UNBOUND:                -0.644
REMARK  Name = 
REMARK  6 active torsions:
REMARK  status: ('A' for Active; 'I' for Inactive)
REMARK    1  A    between atoms: C_1  and  C_2
REMARK    2  A    between atoms: C_2  and  C_4
REMARK    3  A    between atoms: C_5  and  S_6
REMARK    4  A    between atoms: S_6  and  C_8
REMARK    5  A    between atoms: C_8  and  C_9
REMARK    6  A    between atoms: C_11  and  C_12
REMARK                            x       y       z     vdW  Elec       q    Type
REMARK                         _______ _______ _______ _____ _____    ______ ____
ROOT
ATOM      1  C   UNL     1     -57.776 -42.542 -76.547  0.00  0.00    +0.000 A 
ATOM      2  C   UNL     1     -56.553 -43.115 -76.482  0.00  0.00    +0.000 A 
ATOM      3  N   UNL     1     -56.291 -44.398 -76.919  0.00  0.00    +0.000 N 
ATOM      4  C   UNL     1     -57.301 -45.284 -77.330  0.00  0.00    +0.000 A 
ATOM      5  C   UNL     1     -56.989 -46.593 -77.743  0.00  0.00    +0.000 A 
ATOM      6 BR   UNL     1     -55.200 -47.232 -77.705  0.00  0.00    +0.000 Br
ATOM      7  C   UNL     1     -57.978 -47.461 -78.194  0.00  0.00    +0.000 A 
ATOM      8  C   UNL     1     -59.302 -47.023 -78.247  0.00  0.00    +0.000 A 
ATOM      9  C   UNL     1     -59.636 -45.720 -77.863  0.00  0.00    +0.000 A 
ATOM     10 CL   UNL     1     -61.320 -45.336 -77.963  0.00  0.00    +0.000 Cl
ATOM     11  C   UNL     1     -58.630 -44.835 -77.428  0.00  0.00    +0.000 A 
ATOM     12  C   UNL     1     -58.896 -43.423 -77.039  0.00  0.00    +0.000 A 
ATOM     13  O   UNL     1     -60.038 -42.986 -77.083  0.00  0.00    +0.000 OA
ATOM     14  H   UNL     1     -55.459 -44.838 -76.520  0.00  0.00    +0.000 HD
ENDROOT
BRANCH   1  16
ATOM     15  C   UNL     1     -57.958 -40.012 -77.141  0.00  0.00    +0.000 C 
ATOM     16  C   UNL     1     -58.083 -41.127 -76.126  0.00  0.00    +0.000 C 
ATOM     17  O   UNL     1     -58.417 -40.853 -74.973  0.00  0.00    +0.000 OA
ENDBRANCH   1  16
BRANCH   2  18
ATOM     18  S   UNL     1     -55.158 -42.289 -75.645  0.00  0.00    +0.000 S 
ATOM     19  O   UNL     1     -55.312 -42.718 -74.210  0.00  0.00    +0.000 OA
BRANCH  18  20
ATOM     20  C   UNL     1     -53.774 -43.280 -76.318  0.00  0.00    +0.000 C 
BRANCH  20  21
ATOM     21  C   UNL     1     -53.259 -42.693 -77.589  0.00  0.00    +0.000 A 
ATOM     22  C   UNL     1     -53.827 -42.734 -78.890  0.00  0.00    +0.000 A 
ATOM     23  C   UNL     1     -52.960 -42.010 -79.670  0.00  0.00    +0.000 A 
ATOM     24  C   UNL     1     -52.903 -41.653 -81.100  0.00  0.00    +0.000 C 
ATOM     25  O   UNL     1     -51.947 -41.544 -78.892  0.00  0.00    +0.000 OA
ATOM     26  N   UNL     1     -52.135 -41.962 -77.586  0.00  0.00    +0.000 NA
ENDBRANCH  20  21
ENDBRANCH  18  20
ENDBRANCH   2  18
TORSDOF 4
ENDMDL
MODEL 13
REMARK VINA RESULT:    -5.495      3.828      6.099
REMARK INTER + INTRA:          -7.424
REMARK INTER:                  -6.526
REMARK INTRA:                  -0.899
REMARK UNBOUND:                -0.644
REMARK  Name = 
REMARK  6 active torsions:
REMARK  status: ('A' for Active; 'I' for Inactive)
REMARK    1  A    between atoms: C_1  and  C_2
REMARK    2  A    between atoms: C_2  and  C_4
REMARK    3  A    between atoms: C_5  and  S_6
REMARK    4  A    between atoms: S_6  and  C_8
REMARK    5  A    between atoms: C_8  and  C_9
REMARK    6  A    between atoms: C_11  and  C_12
REMARK                            x       y       z     vdW  Elec       q    Type
REMARK                         _______ _______ _______ _____ _____    ______ ____
ROOT
ATOM      1  C   UNL     1     -56.447 -43.772 -79.758  0.00  0.00    +0.000 A 
ATOM      2  C   UNL     1     -56.307 -43.717 -78.415  0.00  0.00    +0.000 A 
ATOM      3  N   UNL     1     -55.202 -43.178 -77.787  0.00  0.00    +0.000 N 
ATOM      4  C   UNL     1     -54.050 -42.775 -78.484  0.00  0.00    +0.000 A 
ATOM      5  C   UNL     1     -52.936 -42.256 -77.800  0.00  0.00    +0.000 A 
ATOM      6 BR   UNL     1     -52.921 -42.133 -75.904  0.00  0.00    +0.000 Br
ATOM      7  C   UNL     1     -51.811 -41.813 -78.487  0.00  0.00    +0.000 A 
ATOM      8  C   UNL     1     -51.789 -41.876 -79.881  0.00  0.00    +0.000 A 
ATOM      9  C   UNL     1     -52.892 -42.369 -80.587  0.00  0.00    +0.000 A 
ATOM     10 CL   UNL     1     -52.704 -42.405 -82.306  0.00  0.00    +0.000 Cl
ATOM     11  C   UNL     1     -54.040 -42.796 -79.890  0.00  0.00    +0.000 A 
ATOM     12  C   UNL     1     -55.268 -43.296 -80.567  0.00  0.00    +0.000 A 
ATOM     13  O   UNL     1     -55.306 -43.356 -81.789  0.00  0.00    +0.000 OA
ATOM     14  H   UNL     1     -55.044 -43.492 -76.827  0.00  0.00    +0.000 HD
ENDROOT
BRANCH   1  16
ATOM     15  C   UNL     1     -57.691 -45.760 -80.892  0.00  0.00    +0.000 C 
ATOM     16  C   UNL     1     -57.663 -44.307 -80.472  0.00  0.00    +0.000 C 
ATOM     17  O   UNL     1     -58.627 -43.588 -80.734  0.00  0.00    +0.000 OA
ENDBRANCH   1  16
BRANCH   2  18
ATOM     18  S   UNL     1     -57.510 -44.515 -77.299  0.00  0.00    +0.000 S 
ATOM     19  O   UNL     1     -56.803 -44.513 -75.969  0.00  0.00    +0.000 OA
BRANCH  18  20
ATOM     20  C   UNL     1     -58.761 -43.183 -77.202  0.00  0.00    +0.000 C 
BRANCH  20  21
ATOM     21  C   UNL     1     -58.405 -42.184 -76.152  0.00  0.00    +0.000 A 
ATOM     22  C   UNL     1     -58.833 -42.114 -74.800  0.00  0.00    +0.000 A 
ATOM     23  C   UNL     1     -58.176 -41.024 -74.285  0.00  0.00    +0.000 A 
ATOM     24  C   UNL     1     -58.151 -40.355 -72.970  0.00  0.00    +0.000 C 
ATOM     25  O   UNL     1     -57.389 -40.482 -75.252  0.00  0.00    +0.000 OA
ATOM     26  N   UNL     1     -57.523 -41.211 -76.422  0.00  0.00    +0.000 NA
ENDBRANCH  20  21
ENDBRANCH  18  20
ENDBRANCH   2  18
TORSDOF 4
ENDMDL
MODEL 14
REMARK VINA RESULT:    -5.488      2.437      3.665
REMARK INTER + INTRA:          -7.415
REMARK INTER:                  -6.635
REMARK INTRA:                  -0.780
REMARK UNBOUND:                -0.644
REMARK  Name = 
REMARK  6 active torsions:
REMARK  status: ('A' for Active; 'I' for Inactive)
REMARK    1  A    between atoms: C_1  and  C_2
REMARK    2  A    between atoms: C_2  and  C_4
REMARK    3  A    between atoms: C_5  and  S_6
REMARK    4  A    between atoms: S_6  and  C_8
REMARK    5  A    between atoms: C_8  and  C_9
REMARK    6  A    between atoms: C_11  and  C_12
REMARK                            x       y       z     vdW  Elec       q    Type
REMARK                         _______ _______ _______ _____ _____    ______ ____
ROOT
ATOM      1  C   UNL     1     -58.638 -44.841 -78.222  0.00  0.00    +0.000 A 
ATOM      2  C   UNL     1     -57.553 -44.305 -77.620  0.00  0.00    +0.000 A 
ATOM      3  N   UNL     1     -56.502 -45.060 -77.138  0.00  0.00    +0.000 N 
ATOM      4  C   UNL     1     -56.531 -46.463 -77.087  0.00  0.00    +0.000 A 
ATOM      5  C   UNL     1     -55.447 -47.190 -76.562  0.00  0.00    +0.000 A 
ATOM      6 BR   UNL     1     -53.928 -46.302 -75.846  0.00  0.00    +0.000 Br
ATOM      7  C   UNL     1     -55.450 -48.581 -76.551  0.00  0.00    +0.000 A 
ATOM      8  C   UNL     1     -56.544 -49.269 -77.079  0.00  0.00    +0.000 A 
ATOM      9  C   UNL     1     -57.625 -48.570 -77.626  0.00  0.00    +0.000 A 
ATOM     10 CL   UNL     1     -58.912 -49.563 -78.219  0.00  0.00    +0.000 Cl
ATOM     11  C   UNL     1     -57.610 -47.162 -77.658  0.00  0.00    +0.000 A 
ATOM     12  C   UNL     1     -58.702 -46.346 -78.256  0.00  0.00    +0.000 A 
ATOM     13  O   UNL     1     -59.676 -46.901 -78.747  0.00  0.00    +0.000 OA
ATOM     14  H   UNL     1     -55.929 -44.608 -76.421  0.00  0.00    +0.000 HD
ENDROOT
BRANCH   1  16
ATOM     15  C   UNL     1     -59.718 -43.628 -80.259  0.00  0.00    +0.000 C 
ATOM     16  C   UNL     1     -59.776 -44.041 -78.805  0.00  0.00    +0.000 C 
ATOM     17  O   UNL     1     -60.744 -43.703 -78.124  0.00  0.00    +0.000 OA
ENDBRANCH   1  16
BRANCH   2  18
ATOM     18  S   UNL     1     -57.457 -42.523 -77.238  0.00  0.00    +0.000 S 
ATOM     19  O   UNL     1     -56.824 -42.496 -75.872  0.00  0.00    +0.000 OA
BRANCH  18  20
ATOM     20  C   UNL     1     -56.141 -42.033 -78.410  0.00  0.00    +0.000 C 
BRANCH  20  21
ATOM     21  C   UNL     1     -54.927 -41.551 -77.687  0.00  0.00    +0.000 A 
ATOM     22  C   UNL     1     -53.758 -42.270 -77.320  0.00  0.00    +0.000 A 
ATOM     23  C   UNL     1     -52.956 -41.338 -76.711  0.00  0.00    +0.000 A 
ATOM     24  C   UNL     1     -51.624 -41.373 -76.077  0.00  0.00    +0.000 C 
ATOM     25  O   UNL     1     -53.586 -40.133 -76.725  0.00  0.00    +0.000 OA
ATOM     26  N   UNL     1     -54.817 -40.260 -77.344  0.00  0.00    +0.000 NA
ENDBRANCH  20  21
ENDBRANCH  18  20
ENDBRANCH   2  18
TORSDOF 4
ENDMDL
MODEL 15
REMARK VINA RESULT:    -5.301     15.715     16.976
REMARK INTER + INTRA:          -7.184
REMARK INTER:                  -6.465
REMARK INTRA:                  -0.719
REMARK UNBOUND:                -0.644
REMARK  Name = 
REMARK  6 active torsions:
REMARK  status: ('A' for Active; 'I' for Inactive)
REMARK    1  A    between atoms: C_1  and  C_2
REMARK    2  A    between atoms: C_2  and  C_4
REMARK    3  A    between atoms: C_5  and  S_6
REMARK    4  A    between atoms: S_6  and  C_8
REMARK    5  A    between atoms: C_8  and  C_9
REMARK    6  A    between atoms: C_11  and  C_12
REMARK                            x       y       z     vdW  Elec       q    Type
REMARK                         _______ _______ _______ _____ _____    ______ ____
ROOT
ATOM      1  C   UNL     1     -58.494 -39.523 -62.307  0.00  0.00    +0.000 A 
ATOM      2  C   UNL     1     -58.343 -38.191 -62.129  0.00  0.00    +0.000 A 
ATOM      3  N   UNL     1     -57.254 -37.482 -62.594  0.00  0.00    +0.000 N 
ATOM      4  C   UNL     1     -56.127 -38.100 -63.161  0.00  0.00    +0.000 A 
ATOM      5  C   UNL     1     -55.027 -37.338 -63.597  0.00  0.00    +0.000 A 
ATOM      6 BR   UNL     1     -54.998 -35.450 -63.382  0.00  0.00    +0.000 Br
ATOM      7  C   UNL     1     -53.928 -37.939 -64.200  0.00  0.00    +0.000 A 
ATOM      8  C   UNL     1     -53.918 -39.322 -64.385  0.00  0.00    +0.000 A 
ATOM      9  C   UNL     1     -55.007 -40.101 -63.980  0.00  0.00    +0.000 A 
ATOM     10 CL   UNL     1     -54.835 -41.800 -64.256  0.00  0.00    +0.000 Cl
ATOM     11  C   UNL     1     -56.130 -39.487 -63.389  0.00  0.00    +0.000 A 
ATOM     12  C   UNL     1     -57.344 -40.239 -62.966  0.00  0.00    +0.000 A 
ATOM     13  O   UNL     1     -57.392 -41.452 -63.121  0.00  0.00    +0.000 OA
ATOM     14  H   UNL     1     -57.074 -36.593 -62.122  0.00  0.00    +0.000 HD
ENDROOT
BRANCH   1  16
ATOM     15  C   UNL     1     -60.896 -40.419 -62.772  0.00  0.00    +0.000 C 
ATOM     16  C   UNL     1     -59.696 -40.316 -61.857  0.00  0.00    +0.000 C 
ATOM     17  O   UNL     1     -59.730 -40.870 -60.757  0.00  0.00    +0.000 OA
ENDBRANCH   1  16
BRANCH   2  18
ATOM     18  S   UNL     1     -59.502 -37.231 -61.097  0.00  0.00    +0.000 S 
ATOM     19  O   UNL     1     -58.681 -36.043 -60.669  0.00  0.00    +0.000 OA
BRANCH  18  20
ATOM     20  C   UNL     1     -60.628 -36.616 -62.402  0.00  0.00    +0.000 C 
BRANCH  20  21
ATOM     21  C   UNL     1     -61.196 -35.284 -62.040  0.00  0.00    +0.000 A 
ATOM     22  C   UNL     1     -62.102 -34.949 -60.999  0.00  0.00    +0.000 A 
ATOM     23  C   UNL     1     -62.258 -33.588 -61.101  0.00  0.00    +0.000 A 
ATOM     24  C   UNL     1     -63.050 -32.579 -60.373  0.00  0.00    +0.000 C 
ATOM     25  O   UNL     1     -61.485 -33.128 -62.120  0.00  0.00    +0.000 OA
ATOM     26  N   UNL     1     -60.811 -34.186 -62.706  0.00  0.00    +0.000 NA
ENDBRANCH  20  21
ENDBRANCH  18  20
ENDBRANCH   2  18
TORSDOF 4
ENDMDL
MODEL 16
REMARK VINA RESULT:    -5.190     15.480     16.587
REMARK INTER + INTRA:          -7.047
REMARK INTER:                  -6.573
REMARK INTRA:                  -0.474
REMARK UNBOUND:                -0.644
REMARK  Name = 
REMARK  6 active torsions:
REMARK  status: ('A' for Active; 'I' for Inactive)
REMARK    1  A    between atoms: C_1  and  C_2
REMARK    2  A    between atoms: C_2  and  C_4
REMARK    3  A    between atoms: C_5  and  S_6
REMARK    4  A    between atoms: S_6  and  C_8
REMARK    5  A    between atoms: C_8  and  C_9
REMARK    6  A    between atoms: C_11  and  C_12
REMARK                            x       y       z     vdW  Elec       q    Type
REMARK                         _______ _______ _______ _____ _____    ______ ____
ROOT
ATOM      1  C   UNL     1     -56.531 -40.657 -61.281  0.00  0.00    +0.000 A 
ATOM      2  C   UNL     1     -55.871 -41.367 -62.223  0.00  0.00    +0.000 A 
ATOM      3  N   UNL     1     -55.192 -42.539 -61.954  0.00  0.00    +0.000 N 
ATOM      4  C   UNL     1     -54.994 -43.022 -60.650  0.00  0.00    +0.000 A 
ATOM      5  C   UNL     1     -54.272 -44.209 -60.422  0.00  0.00    +0.000 A 
ATOM      6 BR   UNL     1     -53.488 -45.170 -61.860  0.00  0.00    +0.000 Br
ATOM      7  C   UNL     1     -54.110 -44.718 -59.137  0.00  0.00    +0.000 A 
ATOM      8  C   UNL     1     -54.682 -44.045 -58.056  0.00  0.00    +0.000 A 
ATOM      9  C   UNL     1     -55.422 -42.875 -58.258  0.00  0.00    +0.000 A 
ATOM     10 CL   UNL     1     -56.047 -42.147 -56.818  0.00  0.00    +0.000 Cl
ATOM     11  C   UNL     1     -55.604 -42.374 -59.562  0.00  0.00    +0.000 A 
ATOM     12  C   UNL     1     -56.409 -41.158 -59.865  0.00  0.00    +0.000 A 
ATOM     13  O   UNL     1     -56.944 -40.541 -58.954  0.00  0.00    +0.000 OA
ATOM     14  H   UNL     1     -54.468 -42.793 -62.630  0.00  0.00    +0.000 HD
ENDROOT
BRANCH   1  16
ATOM     15  C   UNL     1     -56.629 -38.060 -61.475  0.00  0.00    +0.000 C 
ATOM     16  C   UNL     1     -57.323 -39.402 -61.553  0.00  0.00    +0.000 C 
ATOM     17  O   UNL     1     -58.524 -39.441 -61.822  0.00  0.00    +0.000 OA
ENDBRANCH   1  16
BRANCH   2  18
ATOM     18  S   UNL     1     -55.675 -40.741 -63.926  0.00  0.00    +0.000 S 
ATOM     19  O   UNL     1     -54.453 -41.466 -64.424  0.00  0.00    +0.000 OA
BRANCH  18  20
ATOM     20  C   UNL     1     -57.104 -41.566 -64.716  0.00  0.00    +0.000 C 
BRANCH  20  21
ATOM     21  C   UNL     1     -57.701 -42.593 -63.812  0.00  0.00    +0.000 A 
ATOM     22  C   UNL     1     -58.888 -42.522 -63.036  0.00  0.00    +0.000 A 
ATOM     23  C   UNL     1     -58.978 -43.749 -62.427  0.00  0.00    +0.000 A 
ATOM     24  C   UNL     1     -59.925 -44.371 -61.482  0.00  0.00    +0.000 C 
ATOM     25  O   UNL     1     -57.929 -44.518 -62.823  0.00  0.00    +0.000 OA
ATOM     26  N   UNL     1     -57.131 -43.801 -63.698  0.00  0.00    +0.000 NA
ENDBRANCH  20  21
ENDBRANCH  18  20
ENDBRANCH   2  18
TORSDOF 4
ENDMDL
MODEL 17
REMARK VINA RESULT:    -4.990     15.699     17.144
REMARK INTER + INTRA:          -6.801
REMARK INTER:                  -5.879
REMARK INTRA:                  -0.922
REMARK UNBOUND:                -0.644
REMARK  Name = 
REMARK  6 active torsions:
REMARK  status: ('A' for Active; 'I' for Inactive)
REMARK    1  A    between atoms: C_1  and  C_2
REMARK    2  A    between atoms: C_2  and  C_4
REMARK    3  A    between atoms: C_5  and  S_6
REMARK    4  A    between atoms: S_6  and  C_8
REMARK    5  A    between atoms: C_8  and  C_9
REMARK    6  A    between atoms: C_11  and  C_12
REMARK                            x       y       z     vdW  Elec       q    Type
REMARK                         _______ _______ _______ _____ _____    ______ ____
ROOT
ATOM      1  C   UNL     1     -56.362 -36.726 -62.644  0.00  0.00    +0.000 A 
ATOM      2  C   UNL     1     -57.133 -37.765 -62.252  0.00  0.00    +0.000 A 
ATOM      3  N   UNL     1     -58.499 -37.672 -62.073  0.00  0.00    +0.000 N 
ATOM      4  C   UNL     1     -59.194 -36.452 -62.133  0.00  0.00    +0.000 A 
ATOM      5  C   UNL     1     -60.584 -36.402 -61.918  0.00  0.00    +0.000 A 
ATOM      6 BR   UNL     1     -61.565 -37.969 -61.481  0.00  0.00    +0.000 Br
ATOM      7  C   UNL     1     -61.286 -35.205 -62.020  0.00  0.00    +0.000 A 
ATOM      8  C   UNL     1     -60.601 -34.035 -62.351  0.00  0.00    +0.000 A 
ATOM      9  C   UNL     1     -59.222 -34.061 -62.591  0.00  0.00    +0.000 A 
ATOM     10 CL   UNL     1     -58.515 -32.528 -62.967  0.00  0.00    +0.000 Cl
ATOM     11  C   UNL     1     -58.517 -35.279 -62.509  0.00  0.00    +0.000 A 
ATOM     12  C   UNL     1     -57.060 -35.399 -62.786  0.00  0.00    +0.000 A 
ATOM     13  O   UNL     1     -56.416 -34.405 -63.096  0.00  0.00    +0.000 OA
ATOM     14  H   UNL     1     -58.913 -38.382 -61.465  0.00  0.00    +0.000 HD
ENDROOT
BRANCH   1  16
ATOM     15  C   UNL     1     -54.385 -37.234 -64.263  0.00  0.00    +0.000 C 
ATOM     16  C   UNL     1     -54.877 -36.810 -62.896  0.00  0.00    +0.000 C 
ATOM     17  O   UNL     1     -54.056 -36.556 -62.015  0.00  0.00    +0.000 OA
ENDBRANCH   1  16
BRANCH   2  18
ATOM     18  S   UNL     1     -56.402 -39.361 -61.754  0.00  0.00    +0.000 S 
ATOM     19  O   UNL     1     -57.129 -39.693 -60.478  0.00  0.00    +0.000 OA
BRANCH  18  20
ATOM     20  C   UNL     1     -57.129 -40.440 -63.041  0.00  0.00    +0.000 C 
BRANCH  20  21
ATOM     21  C   UNL     1     -58.262 -41.243 -62.494  0.00  0.00    +0.000 A 
ATOM     22  C   UNL     1     -58.239 -42.530 -61.893  0.00  0.00    +0.000 A 
ATOM     23  C   UNL     1     -59.546 -42.771 -61.544  0.00  0.00    +0.000 A 
ATOM     24  C   UNL     1     -60.257 -43.896 -60.907  0.00  0.00    +0.000 C 
ATOM     25  O   UNL     1     -60.303 -41.698 -61.892  0.00  0.00    +0.000 OA
ATOM     26  N   UNL     1     -59.502 -40.734 -62.479  0.00  0.00    +0.000 NA
ENDBRANCH  20  21
ENDBRANCH  18  20
ENDBRANCH   2  18
TORSDOF 4
ENDMDL
MODEL 18
REMARK VINA RESULT:    -4.985      4.000      6.055
REMARK INTER + INTRA:          -6.795
REMARK INTER:                  -6.114
REMARK INTRA:                  -0.681
REMARK UNBOUND:                -0.644
REMARK  Name = 
REMARK  6 active torsions:
REMARK  status: ('A' for Active; 'I' for Inactive)
REMARK    1  A    between atoms: C_1  and  C_2
REMARK    2  A    between atoms: C_2  and  C_4
REMARK    3  A    between atoms: C_5  and  S_6
REMARK    4  A    between atoms: S_6  and  C_8
REMARK    5  A    between atoms: C_8  and  C_9
REMARK    6  A    between atoms: C_11  and  C_12
REMARK                            x       y       z     vdW  Elec       q    Type
REMARK                         _______ _______ _______ _____ _____    ______ ____
ROOT
ATOM      1  C   UNL     1     -58.568 -48.215 -78.428  0.00  0.00    +0.000 A 
ATOM      2  C   UNL     1     -58.011 -47.058 -78.005  0.00  0.00    +0.000 A 
ATOM      3  N   UNL     1     -58.732 -45.898 -77.801  0.00  0.00    +0.000 N 
ATOM      4  C   UNL     1     -60.084 -45.768 -78.159  0.00  0.00    +0.000 A 
ATOM      5  C   UNL     1     -60.772 -44.557 -77.956  0.00  0.00    +0.000 A 
ATOM      6 BR   UNL     1     -59.886 -43.034 -77.246  0.00  0.00    +0.000 Br
ATOM      7  C   UNL     1     -62.123 -44.435 -78.267  0.00  0.00    +0.000 A 
ATOM      8  C   UNL     1     -62.810 -45.536 -78.780  0.00  0.00    +0.000 A 
ATOM      9  C   UNL     1     -62.155 -46.757 -78.971  0.00  0.00    +0.000 A 
ATOM     10 CL   UNL     1     -63.136 -48.018 -79.635  0.00  0.00    +0.000 Cl
ATOM     11  C   UNL     1     -60.793 -46.885 -78.635  0.00  0.00    +0.000 A 
ATOM     12  C   UNL     1     -60.034 -48.159 -78.772  0.00  0.00    +0.000 A 
ATOM     13  O   UNL     1     -60.595 -49.158 -79.202  0.00  0.00    +0.000 OA
ATOM     14  H   UNL     1     -58.189 -45.032 -77.823  0.00  0.00    +0.000 HD
ENDROOT
BRANCH   1  16
ATOM     15  C   UNL     1     -57.708 -50.470 -77.446  0.00  0.00    +0.000 C 
ATOM     16  C   UNL     1     -57.816 -49.510 -78.610  0.00  0.00    +0.000 C 
ATOM     17  O   UNL     1     -57.276 -49.799 -79.678  0.00  0.00    +0.000 OA
ENDBRANCH   1  16
BRANCH   2  18
ATOM     18  S   UNL     1     -56.204 -46.879 -77.826  0.00  0.00    +0.000 S 
ATOM     19  O   UNL     1     -55.764 -46.422 -79.192  0.00  0.00    +0.000 OA
BRANCH  18  20
ATOM     20  C   UNL     1     -56.152 -45.393 -76.759  0.00  0.00    +0.000 C 
BRANCH  20  21
ATOM     21  C   UNL     1     -54.836 -45.273 -76.066  0.00  0.00    +0.000 A 
ATOM     22  C   UNL     1     -54.146 -44.103 -75.650  0.00  0.00    +0.000 A 
ATOM     23  C   UNL     1     -53.008 -44.571 -75.039  0.00  0.00    +0.000 A 
ATOM     24  C   UNL     1     -51.842 -43.937 -74.397  0.00  0.00    +0.000 C 
ATOM     25  O   UNL     1     -53.018 -45.930 -75.065  0.00  0.00    +0.000 OA
ATOM     26  N   UNL     1     -54.166 -46.374 -75.699  0.00  0.00    +0.000 NA
ENDBRANCH  20  21
ENDBRANCH  18  20
ENDBRANCH   2  18
TORSDOF 4
ENDMDL
MODEL 19
REMARK VINA RESULT:    -4.968     15.646     16.425
REMARK INTER + INTRA:          -6.774
REMARK INTER:                  -6.475
REMARK INTRA:                  -0.298
REMARK UNBOUND:                -0.644
REMARK  Name = 
REMARK  6 active torsions:
REMARK  status: ('A' for Active; 'I' for Inactive)
REMARK    1  A    between atoms: C_1  and  C_2
REMARK    2  A    between atoms: C_2  and  C_4
REMARK    3  A    between atoms: C_5  and  S_6
REMARK    4  A    between atoms: S_6  and  C_8
REMARK    5  A    between atoms: C_8  and  C_9
REMARK    6  A    between atoms: C_11  and  C_12
REMARK                            x       y       z     vdW  Elec       q    Type
REMARK                         _______ _______ _______ _____ _____    ______ ____
ROOT
ATOM      1  C   UNL     1     -57.097 -40.725 -60.301  0.00  0.00    +0.000 A 
ATOM      2  C   UNL     1     -56.416 -41.237 -61.351  0.00  0.00    +0.000 A 
ATOM      3  N   UNL     1     -55.610 -42.354 -61.261  0.00  0.00    +0.000 N 
ATOM      4  C   UNL     1     -55.298 -42.973 -60.040  0.00  0.00    +0.000 A 
ATOM      5  C   UNL     1     -54.449 -44.095 -59.994  0.00  0.00    +0.000 A 
ATOM      6 BR   UNL     1     -53.645 -44.778 -61.573  0.00  0.00    +0.000 Br
ATOM      7  C   UNL     1     -54.173 -44.741 -58.794  0.00  0.00    +0.000 A 
ATOM      8  C   UNL     1     -54.755 -44.274 -57.614  0.00  0.00    +0.000 A 
ATOM      9  C   UNL     1     -55.619 -43.174 -57.635  0.00  0.00    +0.000 A 
ATOM     10 CL   UNL     1     -56.241 -42.703 -56.091  0.00  0.00    +0.000 Cl
ATOM     11  C   UNL     1     -55.916 -42.535 -58.855  0.00  0.00    +0.000 A 
ATOM     12  C   UNL     1     -56.854 -41.384 -58.968  0.00  0.00    +0.000 A 
ATOM     13  O   UNL     1     -57.403 -40.947 -57.965  0.00  0.00    +0.000 OA
ATOM     14  H   UNL     1     -54.899 -42.442 -61.991  0.00  0.00    +0.000 HD
ENDROOT
BRANCH   1  16
ATOM     15  C   UNL     1     -57.479 -38.156 -60.095  0.00  0.00    +0.000 C 
ATOM     16  C   UNL     1     -58.025 -39.538 -60.378  0.00  0.00    +0.000 C 
ATOM     17  O   UNL     1     -59.218 -39.667 -60.652  0.00  0.00    +0.000 OA
ENDBRANCH   1  16
BRANCH   2  18
ATOM     18  S   UNL     1     -56.371 -40.384 -62.964  0.00  0.00    +0.000 S 
ATOM     19  O   UNL     1     -55.196 -39.452 -62.830  0.00  0.00    +0.000 OA
BRANCH  18  20
ATOM     20  C   UNL     1     -55.797 -41.765 -64.018  0.00  0.00    +0.000 C 
BRANCH  20  21
ATOM     21  C   UNL     1     -54.343 -41.636 -64.332  0.00  0.00    +0.000 A 
ATOM     22  C   UNL     1     -53.259 -42.449 -63.907  0.00  0.00    +0.000 A 
ATOM     23  C   UNL     1     -52.157 -41.901 -64.514  0.00  0.00    +0.000 A 
ATOM     24  C   UNL     1     -50.714 -42.207 -64.513  0.00  0.00    +0.000 C 
ATOM     25  O   UNL     1     -52.548 -40.841 -65.271  0.00  0.00    +0.000 OA
ATOM     26  N   UNL     1     -53.919 -40.677 -65.167  0.00  0.00    +0.000 NA
ENDBRANCH  20  21
ENDBRANCH  18  20
ENDBRANCH   2  18
TORSDOF 4
ENDMDL
MODEL 20
REMARK VINA RESULT:    -4.922     11.596     14.222
REMARK INTER + INTRA:          -6.718
REMARK INTER:                  -5.734
REMARK INTRA:                  -0.984
REMARK UNBOUND:                -0.644
REMARK  Name = 
REMARK  6 active torsions:
REMARK  status: ('A' for Active; 'I' for Inactive)
REMARK    1  A    between atoms: C_1  and  C_2
REMARK    2  A    between atoms: C_2  and  C_4
REMARK    3  A    between atoms: C_5  and  S_6
REMARK    4  A    between atoms: S_6  and  C_8
REMARK    5  A    between atoms: C_8  and  C_9
REMARK    6  A    between atoms: C_11  and  C_12
REMARK                            x       y       z     vdW  Elec       q    Type
REMARK                         _______ _______ _______ _____ _____    ______ ____
ROOT
ATOM      1  C   UNL     1     -64.193 -39.477 -83.992  0.00  0.00    +0.000 A 
ATOM      2  C   UNL     1     -65.160 -38.729 -83.414  0.00  0.00    +0.000 A 
ATOM      3  N   UNL     1     -64.960 -37.986 -82.267  0.00  0.00    +0.000 N 
ATOM      4  C   UNL     1     -63.781 -38.058 -81.508  0.00  0.00    +0.000 A 
ATOM      5  C   UNL     1     -63.632 -37.301 -80.330  0.00  0.00    +0.000 A 
ATOM      6 BR   UNL     1     -65.042 -36.199 -79.690  0.00  0.00    +0.000 Br
ATOM      7  C   UNL     1     -62.450 -37.333 -79.598  0.00  0.00    +0.000 A 
ATOM      8  C   UNL     1     -61.389 -38.122 -80.043  0.00  0.00    +0.000 A 
ATOM      9  C   UNL     1     -61.503 -38.867 -81.222  0.00  0.00    +0.000 A 
ATOM     10 CL   UNL     1     -60.111 -39.811 -81.628  0.00  0.00    +0.000 Cl
ATOM     11  C   UNL     1     -62.693 -38.816 -81.974  0.00  0.00    +0.000 A 
ATOM     12  C   UNL     1     -62.880 -39.548 -83.257  0.00  0.00    +0.000 A 
ATOM     13  O   UNL     1     -61.973 -40.241 -83.699  0.00  0.00    +0.000 OA
ATOM     14  H   UNL     1     -65.806 -37.753 -81.741  0.00  0.00    +0.000 HD
ENDROOT
BRANCH   1  16
ATOM     15  C   UNL     1     -63.936 -39.632 -86.580  0.00  0.00    +0.000 C 
ATOM     16  C   UNL     1     -64.366 -40.258 -85.271  0.00  0.00    +0.000 C 
ATOM     17  O   UNL     1     -64.861 -41.385 -85.279  0.00  0.00    +0.000 OA
ENDBRANCH   1  16
BRANCH   2  18
ATOM     18  S   UNL     1     -66.883 -38.770 -84.012  0.00  0.00    +0.000 S 
ATOM     19  O   UNL     1     -67.677 -39.050 -82.763  0.00  0.00    +0.000 OA
BRANCH  18  20
ATOM     20  C   UNL     1     -67.120 -36.991 -84.368  0.00  0.00    +0.000 C 
BRANCH  20  21
ATOM     21  C   UNL     1     -66.327 -36.568 -85.559  0.00  0.00    +0.000 A 
ATOM     22  C   UNL     1     -66.353 -37.085 -86.882  0.00  0.00    +0.000 A 
ATOM     23  C   UNL     1     -65.454 -36.311 -87.574  0.00  0.00    +0.000 A 
ATOM     24  C   UNL     1     -64.963 -36.287 -88.964  0.00  0.00    +0.000 C 
ATOM     25  O   UNL     1     -64.934 -35.377 -86.733  0.00  0.00    +0.000 OA
ATOM     26  N   UNL     1     -65.485 -35.529 -85.472  0.00  0.00    +0.000 NA
ENDBRANCH  20  21
ENDBRANCH  18  20
ENDBRANCH   2  18
TORSDOF 4
ENDMDL
