REMARK VINA RESULT:    -5.303      9.580     12.840
REMARK INTER + INTRA:          -7.811
REMARK INTER:                  -6.761
REMARK INTRA:                  -1.050
REMARK UNBOUND:                -0.957
REMARK  Name = 
REMARK  6 active torsions:
REMARK  status: ('A' for Active; 'I' for Inactive)
REMARK    1  A    between atoms: C_1  and  C_2
REMARK    2  A    between atoms: C_4  and  C_5
REMARK    3  A    between atoms: C_5  and  S_6
REMARK    4  A    between atoms: S_6  and  C_8
REMARK    5  A    between atoms: C_20  and  C_21
REMARK    6  A    between atoms: C_21  and  C_23
REMARK                            x       y       z     vdW  Elec       q    Type
REMARK                         _______ _______ _______ _____ _____    ______ ____
ROOT
ATOM      1  C   UNL     1     -65.837 -41.415 -69.993  0.00  0.00    +0.000 A 
ATOM      2  N   UNL     1     -64.535 -41.536 -70.518  0.00  0.00    +0.000 N 
ATOM      3  C   UNL     1     -63.416 -41.677 -69.652  0.00  0.00    +0.000 A 
ATOM      4  C   UNL     1     -62.174 -42.184 -70.079  0.00  0.00    +0.000 A 
ATOM      5 BR   UNL     1     -61.953 -42.892 -71.825  0.00  0.00    +0.000 Br
ATOM      6  C   UNL     1     -61.066 -42.204 -69.221  0.00  0.00    +0.000 A 
ATOM      7  C   UNL     1     -61.198 -41.739 -67.907  0.00  0.00    +0.000 A 
ATOM      8  C   UNL     1     -62.420 -41.234 -67.461  0.00  0.00    +0.000 A 
ATOM      9 CL   UNL     1     -62.499 -40.753 -65.804  0.00  0.00    +0.000 Cl
ATOM     10  C   UNL     1     -63.512 -41.186 -68.340  0.00  0.00    +0.000 A 
ATOM     11  C   UNL     1     -64.816 -40.592 -67.986  0.00  0.00    +0.000 A 
ATOM     12  O   UNL     1     -64.908 -39.668 -67.187  0.00  0.00    +0.000 OA
ATOM     13  C   UNL     1     -66.036 -41.101 -68.694  0.00  0.00    +0.000 A 
ATOM     14  H   UNL     1     -64.503 -42.153 -71.341  0.00  0.00    +0.000 HD
ENDROOT
BRANCH   1  15
ATOM     15  S   UNL     1     -67.094 -42.142 -71.076  0.00  0.00    +0.000 S 
ATOM     16  O   UNL     1     -66.343 -43.172 -71.875  0.00  0.00    +0.000 OA
BRANCH  15  17
ATOM     17  C   UNL     1     -67.694 -40.883 -72.241  0.00  0.00    +0.000 C 
BRANCH  17  21
ATOM     18  C   UNL     1     -70.171 -36.889 -70.208  0.00  0.00    +0.000 C 
ATOM     19  C   UNL     1     -69.603 -38.030 -70.949  0.00  0.00    +0.000 A 
ATOM     20  C   UNL     1     -68.485 -38.817 -70.804  0.00  0.00    +0.000 A 
ATOM     21  C   UNL     1     -68.605 -39.795 -71.816  0.00  0.00    +0.000 A 
ATOM     22  N   UNL     1     -69.696 -39.564 -72.568  0.00  0.00    +0.000 NA
ATOM     23  O   UNL     1     -70.316 -38.460 -72.020  0.00  0.00    +0.000 OA
ENDBRANCH  17  21
ENDBRANCH  15  17
ENDBRANCH   1  15
BRANCH  13  24
ATOM     24  C   UNL     1     -67.201 -41.329 -67.793  0.00  0.00    +0.000 C 
ATOM     25  O   UNL     1     -68.096 -40.504 -67.716  0.00  0.00    +0.000 OA
BRANCH  24  26
ATOM     26  C   UNL     1     -67.276 -42.590 -67.032  0.00  0.00    +0.000 C 
ATOM     27  C   UNL     1     -66.612 -43.827 -67.581  0.00  0.00    +0.000 C 
ATOM     28  C   UNL     1     -68.107 -43.752 -67.522  0.00  0.00    +0.000 C 
ENDBRANCH  24  26
ENDBRANCH  13  24
TORSDOF 5
