REMARK VINA RESULT:    -5.345     14.937     17.876
REMARK INTER + INTRA:          -7.525
REMARK INTER:                  -6.595
REMARK INTRA:                  -0.930
REMARK UNBOUND:                -0.930
REMARK  Name = 
REMARK  6 active torsions:
REMARK  status: ('A' for Active; 'I' for Inactive)
REMARK    1  A    between atoms: C_1  and  C_2
REMARK    2  A    between atoms: C_2  and  C_4
REMARK    3  A    between atoms: C_5  and  S_6
REMARK    4  A    between atoms: S_6  and  C_8
REMARK    5  A    between atoms: C_8  and  C_9
REMARK    6  A    between atoms: C_11  and  C_12
REMARK                            x       y       z     vdW  Elec       q    Type
REMARK                         _______ _______ _______ _____ _____    ______ ____
ROOT
ATOM      1  C   UNL     1     -64.699 -47.180 -53.827  0.00  0.00    +0.000 A 
ATOM      2  C   UNL     1     -65.352 -48.344 -53.605  0.00  0.00    +0.000 A 
ATOM      3  N   UNL     1     -66.060 -49.021 -54.584  0.00  0.00    +0.000 N 
ATOM      4  C   UNL     1     -66.411 -48.395 -55.795  0.00  0.00    +0.000 A 
ATOM      5  C   UNL     1     -67.344 -48.976 -56.668  0.00  0.00    +0.000 A 
ATOM      6 BR   UNL     1     -68.211 -50.607 -56.227  0.00  0.00    +0.000 Br
ATOM      7  C   UNL     1     -67.670 -48.361 -57.875  0.00  0.00    +0.000 A 
ATOM      8  C   UNL     1     -67.059 -47.155 -58.221  0.00  0.00    +0.000 A 
ATOM      9  C   UNL     1     -66.098 -46.575 -57.379  0.00  0.00    +0.000 A 
ATOM     10 CL   UNL     1     -65.464 -45.052 -57.880  0.00  0.00    +0.000 Cl
ATOM     11  C   UNL     1     -65.753 -47.214 -56.178  0.00  0.00    +0.000 A 
ATOM     12  C   UNL     1     -64.691 -46.723 -55.257  0.00  0.00    +0.000 A 
ATOM     13  O   UNL     1     -63.796 -45.989 -55.661  0.00  0.00    +0.000 OA
ATOM     14  H   UNL     1     -66.786 -49.642 -54.214  0.00  0.00    +0.000 HD
ENDROOT
BRANCH   1  16
ATOM     15  C   UNL     1     -64.623 -45.059 -52.320  0.00  0.00    +0.000 C 
ATOM     16  C   UNL     1     -64.000 -46.361 -52.785  0.00  0.00    +0.000 C 
ATOM     17  O   UNL     1     -62.934 -46.734 -52.296  0.00  0.00    +0.000 OA
ENDBRANCH   1  16
BRANCH   2  18
ATOM     18  S   UNL     1     -65.492 -49.062 -51.934  0.00  0.00    +0.000 S 
ATOM     19  O   UNL     1     -66.966 -49.341 -51.803  0.00  0.00    +0.000 OA
BRANCH  18  20
ATOM     20  C   UNL     1     -64.697 -50.673 -52.297  0.00  0.00    +0.000 C 
BRANCH  20  21
ATOM     21  C   UNL     1     -65.631 -51.839 -52.292  0.00  0.00    +0.000 A 
ATOM     22  C   UNL     1     -66.100 -52.650 -51.227  0.00  0.00    +0.000 A 
ATOM     23  C   UNL     1     -67.006 -53.503 -51.808  0.00  0.00    +0.000 A 
ATOM     24  C   UNL     1     -67.872 -54.594 -51.324  0.00  0.00    +0.000 C 
ATOM     25  O   UNL     1     -67.091 -53.219 -53.135  0.00  0.00    +0.000 OA
ATOM     26  N   UNL     1     -66.240 -52.177 -53.440  0.00  0.00    +0.000 NA
ENDBRANCH  20  21
ENDBRANCH  18  20
ENDBRANCH   2  18
TORSDOF 4
