REMARK VINA RESULT:    -4.922     11.596     14.222
REMARK INTER + INTRA:          -6.718
REMARK INTER:                  -5.734
REMARK INTRA:                  -0.984
REMARK UNBOUND:                -0.644
REMARK  Name = 
REMARK  6 active torsions:
REMARK  status: ('A' for Active; 'I' for Inactive)
REMARK    1  A    between atoms: C_1  and  C_2
REMARK    2  A    between atoms: C_2  and  C_4
REMARK    3  A    between atoms: C_5  and  S_6
REMARK    4  A    between atoms: S_6  and  C_8
REMARK    5  A    between atoms: C_8  and  C_9
REMARK    6  A    between atoms: C_11  and  C_12
REMARK                            x       y       z     vdW  Elec       q    Type
REMARK                         _______ _______ _______ _____ _____    ______ ____
ROOT
ATOM      1  C   UNL     1     -64.193 -39.477 -83.992  0.00  0.00    +0.000 A 
ATOM      2  C   UNL     1     -65.160 -38.729 -83.414  0.00  0.00    +0.000 A 
ATOM      3  N   UNL     1     -64.960 -37.986 -82.267  0.00  0.00    +0.000 N 
ATOM      4  C   UNL     1     -63.781 -38.058 -81.508  0.00  0.00    +0.000 A 
ATOM      5  C   UNL     1     -63.632 -37.301 -80.330  0.00  0.00    +0.000 A 
ATOM      6 BR   UNL     1     -65.042 -36.199 -79.690  0.00  0.00    +0.000 Br
ATOM      7  C   UNL     1     -62.450 -37.333 -79.598  0.00  0.00    +0.000 A 
ATOM      8  C   UNL     1     -61.389 -38.122 -80.043  0.00  0.00    +0.000 A 
ATOM      9  C   UNL     1     -61.503 -38.867 -81.222  0.00  0.00    +0.000 A 
ATOM     10 CL   UNL     1     -60.111 -39.811 -81.628  0.00  0.00    +0.000 Cl
ATOM     11  C   UNL     1     -62.693 -38.816 -81.974  0.00  0.00    +0.000 A 
ATOM     12  C   UNL     1     -62.880 -39.548 -83.257  0.00  0.00    +0.000 A 
ATOM     13  O   UNL     1     -61.973 -40.241 -83.699  0.00  0.00    +0.000 OA
ATOM     14  H   UNL     1     -65.806 -37.753 -81.741  0.00  0.00    +0.000 HD
ENDROOT
BRANCH   1  16
ATOM     15  C   UNL     1     -63.936 -39.632 -86.580  0.00  0.00    +0.000 C 
ATOM     16  C   UNL     1     -64.366 -40.258 -85.271  0.00  0.00    +0.000 C 
ATOM     17  O   UNL     1     -64.861 -41.385 -85.279  0.00  0.00    +0.000 OA
ENDBRANCH   1  16
BRANCH   2  18
ATOM     18  S   UNL     1     -66.883 -38.770 -84.012  0.00  0.00    +0.000 S 
ATOM     19  O   UNL     1     -67.677 -39.050 -82.763  0.00  0.00    +0.000 OA
BRANCH  18  20
ATOM     20  C   UNL     1     -67.120 -36.991 -84.368  0.00  0.00    +0.000 C 
BRANCH  20  21
ATOM     21  C   UNL     1     -66.327 -36.568 -85.559  0.00  0.00    +0.000 A 
ATOM     22  C   UNL     1     -66.353 -37.085 -86.882  0.00  0.00    +0.000 A 
ATOM     23  C   UNL     1     -65.454 -36.311 -87.574  0.00  0.00    +0.000 A 
ATOM     24  C   UNL     1     -64.963 -36.287 -88.964  0.00  0.00    +0.000 C 
ATOM     25  O   UNL     1     -64.934 -35.377 -86.733  0.00  0.00    +0.000 OA
ATOM     26  N   UNL     1     -65.485 -35.529 -85.472  0.00  0.00    +0.000 NA
ENDBRANCH  20  21
ENDBRANCH  18  20
ENDBRANCH   2  18
TORSDOF 4
