REMARK VINA RESULT:    -6.806     11.196     14.785
REMARK INTER + INTRA:          -9.595
REMARK INTER:                  -8.683
REMARK INTRA:                  -0.912
REMARK UNBOUND:                -0.800
REMARK  Name = 
REMARK  8 active torsions:
REMARK  status: ('A' for Active; 'I' for Inactive)
REMARK    1  A    between atoms: C_1  and  C_2
REMARK    2  A    between atoms: C_4  and  C_5
REMARK    3  A    between atoms: C_5  and  S_6
REMARK    4  A    between atoms: S_6  and  C_8
REMARK    5  A    between atoms: C_20  and  C_21
REMARK    6  A    between atoms: C_21  and  C_23
REMARK    7  A    between atoms: C_23  and  C_24
REMARK    8  A    between atoms: C_23  and  C_25
REMARK                            x       y       z     vdW  Elec       q    Type
REMARK                         _______ _______ _______ _____ _____    ______ ____
ROOT
ATOM      1  C   UNL     1     -55.195 -42.102 -78.013  0.00  0.00    +0.000 A 
ATOM      2  N   UNL     1     -56.494 -42.516 -77.733  0.00  0.00    +0.000 N 
ATOM      3  C   UNL     1     -57.042 -42.405 -76.440  0.00  0.00    +0.000 A 
ATOM      4  C   UNL     1     -58.431 -42.412 -76.212  0.00  0.00    +0.000 A 
ATOM      5 BR   UNL     1     -59.657 -42.410 -77.659  0.00  0.00    +0.000 Br
ATOM      6  C   UNL     1     -58.946 -42.379 -74.913  0.00  0.00    +0.000 A 
ATOM      7  C   UNL     1     -58.081 -42.333 -73.824  0.00  0.00    +0.000 A 
ATOM      8  C   UNL     1     -56.690 -42.317 -74.030  0.00  0.00    +0.000 A 
ATOM      9 CL   UNL     1     -55.721 -42.186 -72.607  0.00  0.00    +0.000 Cl
ATOM     10  C   UNL     1     -56.170 -42.357 -75.341  0.00  0.00    +0.000 A 
ATOM     11  C   UNL     1     -54.719 -42.377 -75.663  0.00  0.00    +0.000 A 
ATOM     12  O   UNL     1     -53.911 -42.786 -74.834  0.00  0.00    +0.000 OA
ATOM     13  C   UNL     1     -54.272 -41.903 -77.042  0.00  0.00    +0.000 A 
ATOM     14  H   UNL     1     -57.151 -42.386 -78.515  0.00  0.00    +0.000 HD
ENDROOT
BRANCH   1  15
ATOM     15  S   UNL     1     -54.994 -41.672 -79.783  0.00  0.00    +0.000 S 
ATOM     16  O   UNL     1     -56.346 -41.959 -80.379  0.00  0.00    +0.000 OA
BRANCH  15  17
ATOM     17  C   UNL     1     -53.817 -42.927 -80.389  0.00  0.00    +0.000 C 
BRANCH  17  21
ATOM     18  C   UNL     1     -50.162 -41.808 -83.880  0.00  0.00    +0.000 C 
ATOM     19  C   UNL     1     -51.332 -42.011 -82.999  0.00  0.00    +0.000 A 
ATOM     20  C   UNL     1     -51.599 -42.792 -81.897  0.00  0.00    +0.000 A 
ATOM     21  C   UNL     1     -52.934 -42.465 -81.524  0.00  0.00    +0.000 A 
ATOM     22  N   UNL     1     -53.434 -41.553 -82.377  0.00  0.00    +0.000 NA
ATOM     23  O   UNL     1     -52.434 -41.273 -83.288  0.00  0.00    +0.000 OA
ENDBRANCH  17  21
ENDBRANCH  15  17
ENDBRANCH   1  15
BRANCH  13  24
ATOM     24  C   UNL     1     -52.909 -41.253 -77.128  0.00  0.00    +0.000 C 
ATOM     25  O   UNL     1     -51.926 -41.918 -77.449  0.00  0.00    +0.000 OA
BRANCH  24  26
ATOM     26  C   UNL     1     -52.730 -39.781 -76.754  0.00  0.00    +0.000 C 
ATOM     27  C   UNL     1     -51.304 -39.483 -76.297  0.00  0.00    +0.000 C 
ATOM     28  C   UNL     1     -53.126 -38.847 -77.900  0.00  0.00    +0.000 C 
ENDBRANCH  24  26
ENDBRANCH  13  24
TORSDOF 5
