REMARK VINA RESULT:    -5.687      2.525      2.857
REMARK INTER + INTRA:          -7.661
REMARK INTER:                  -6.820
REMARK INTRA:                  -0.842
REMARK UNBOUND:                -0.644
REMARK  Name = 
REMARK  6 active torsions:
REMARK  status: ('A' for Active; 'I' for Inactive)
REMARK    1  A    between atoms: C_1  and  C_2
REMARK    2  A    between atoms: C_2  and  C_4
REMARK    3  A    between atoms: C_5  and  S_6
REMARK    4  A    between atoms: S_6  and  C_8
REMARK    5  A    between atoms: C_8  and  C_9
REMARK    6  A    between atoms: C_11  and  C_12
REMARK                            x       y       z     vdW  Elec       q    Type
REMARK                         _______ _______ _______ _____ _____    ______ ____
ROOT
ATOM      1  C   UNL     1     -57.776 -42.542 -76.547  0.00  0.00    +0.000 A 
ATOM      2  C   UNL     1     -56.553 -43.115 -76.482  0.00  0.00    +0.000 A 
ATOM      3  N   UNL     1     -56.291 -44.398 -76.919  0.00  0.00    +0.000 N 
ATOM      4  C   UNL     1     -57.301 -45.284 -77.330  0.00  0.00    +0.000 A 
ATOM      5  C   UNL     1     -56.989 -46.593 -77.743  0.00  0.00    +0.000 A 
ATOM      6 BR   UNL     1     -55.200 -47.232 -77.705  0.00  0.00    +0.000 Br
ATOM      7  C   UNL     1     -57.978 -47.461 -78.194  0.00  0.00    +0.000 A 
ATOM      8  C   UNL     1     -59.302 -47.023 -78.247  0.00  0.00    +0.000 A 
ATOM      9  C   UNL     1     -59.636 -45.720 -77.863  0.00  0.00    +0.000 A 
ATOM     10 CL   UNL     1     -61.320 -45.336 -77.963  0.00  0.00    +0.000 Cl
ATOM     11  C   UNL     1     -58.630 -44.835 -77.428  0.00  0.00    +0.000 A 
ATOM     12  C   UNL     1     -58.896 -43.423 -77.039  0.00  0.00    +0.000 A 
ATOM     13  O   UNL     1     -60.038 -42.986 -77.083  0.00  0.00    +0.000 OA
ATOM     14  H   UNL     1     -55.459 -44.838 -76.520  0.00  0.00    +0.000 HD
ENDROOT
BRANCH   1  16
ATOM     15  C   UNL     1     -57.958 -40.012 -77.141  0.00  0.00    +0.000 C 
ATOM     16  C   UNL     1     -58.083 -41.127 -76.126  0.00  0.00    +0.000 C 
ATOM     17  O   UNL     1     -58.417 -40.853 -74.973  0.00  0.00    +0.000 OA
ENDBRANCH   1  16
BRANCH   2  18
ATOM     18  S   UNL     1     -55.158 -42.289 -75.645  0.00  0.00    +0.000 S 
ATOM     19  O   UNL     1     -55.312 -42.718 -74.210  0.00  0.00    +0.000 OA
BRANCH  18  20
ATOM     20  C   UNL     1     -53.774 -43.280 -76.318  0.00  0.00    +0.000 C 
BRANCH  20  21
ATOM     21  C   UNL     1     -53.259 -42.693 -77.589  0.00  0.00    +0.000 A 
ATOM     22  C   UNL     1     -53.827 -42.734 -78.890  0.00  0.00    +0.000 A 
ATOM     23  C   UNL     1     -52.960 -42.010 -79.670  0.00  0.00    +0.000 A 
ATOM     24  C   UNL     1     -52.903 -41.653 -81.100  0.00  0.00    +0.000 C 
ATOM     25  O   UNL     1     -51.947 -41.544 -78.892  0.00  0.00    +0.000 OA
ATOM     26  N   UNL     1     -52.135 -41.962 -77.586  0.00  0.00    +0.000 NA
ENDBRANCH  20  21
ENDBRANCH  18  20
ENDBRANCH   2  18
TORSDOF 4
