REMARK VINA RESULT:    -6.644     11.959     14.568
REMARK INTER + INTRA:          -9.544
REMARK INTER:                  -8.393
REMARK INTRA:                  -1.151
REMARK UNBOUND:                -0.957
REMARK  Name = 
REMARK  6 active torsions:
REMARK  status: ('A' for Active; 'I' for Inactive)
REMARK    1  A    between atoms: C_1  and  C_2
REMARK    2  A    between atoms: C_4  and  C_5
REMARK    3  A    between atoms: C_5  and  S_6
REMARK    4  A    between atoms: S_6  and  C_8
REMARK    5  A    between atoms: C_20  and  C_21
REMARK    6  A    between atoms: C_21  and  C_23
REMARK                            x       y       z     vdW  Elec       q    Type
REMARK                         _______ _______ _______ _____ _____    ______ ____
ROOT
ATOM      1  C   UNL     1     -54.763 -43.393 -78.193  0.00  0.00    +0.000 A 
ATOM      2  N   UNL     1     -54.863 -44.455 -79.113  0.00  0.00    +0.000 N 
ATOM      3  C   UNL     1     -55.235 -45.756 -78.677  0.00  0.00    +0.000 A 
ATOM      4  C   UNL     1     -55.728 -46.746 -79.548  0.00  0.00    +0.000 A 
ATOM      5 BR   UNL     1     -56.104 -46.351 -81.365  0.00  0.00    +0.000 Br
ATOM      6  C   UNL     1     -55.979 -48.049 -79.097  0.00  0.00    +0.000 A 
ATOM      7  C   UNL     1     -55.764 -48.370 -77.752  0.00  0.00    +0.000 A 
ATOM      8  C   UNL     1     -55.278 -47.405 -76.869  0.00  0.00    +0.000 A 
ATOM      9 CL   UNL     1     -55.115 -47.881 -75.217  0.00  0.00    +0.000 Cl
ATOM     10  C   UNL     1     -54.996 -46.114 -77.341  0.00  0.00    +0.000 A 
ATOM     11  C   UNL     1     -54.401 -45.055 -76.503  0.00  0.00    +0.000 A 
ATOM     12  O   UNL     1     -53.641 -45.315 -75.579  0.00  0.00    +0.000 OA
ATOM     13  C   UNL     1     -54.689 -43.628 -76.864  0.00  0.00    +0.000 A 
ATOM     14  H   UNL     1     -55.314 -44.167 -79.992  0.00  0.00    +0.000 HD
ENDROOT
BRANCH   1  15
ATOM     15  S   UNL     1     -55.192 -41.793 -78.928  0.00  0.00    +0.000 S 
ATOM     16  O   UNL     1     -55.627 -42.134 -80.327  0.00  0.00    +0.000 OA
BRANCH  15  17
ATOM     17  C   UNL     1     -53.699 -40.765 -79.058  0.00  0.00    +0.000 C 
BRANCH  17  21
ATOM     18  C   UNL     1     -50.007 -40.986 -75.517  0.00  0.00    +0.000 C 
ATOM     19  C   UNL     1     -51.105 -40.724 -76.466  0.00  0.00    +0.000 A 
ATOM     20  C   UNL     1     -51.661 -41.416 -77.516  0.00  0.00    +0.000 A 
ATOM     21  C   UNL     1     -52.750 -40.618 -77.930  0.00  0.00    +0.000 A 
ATOM     22  N   UNL     1     -52.799 -39.480 -77.216  0.00  0.00    +0.000 NA
ATOM     23  O   UNL     1     -51.769 -39.552 -76.301  0.00  0.00    +0.000 OA
ENDBRANCH  17  21
ENDBRANCH  15  17
ENDBRANCH   1  15
BRANCH  13  24
ATOM     24  C   UNL     1     -55.010 -42.766 -75.691  0.00  0.00    +0.000 C 
ATOM     25  O   UNL     1     -54.123 -42.198 -75.078  0.00  0.00    +0.000 OA
BRANCH  24  26
ATOM     26  C   UNL     1     -56.424 -42.575 -75.316  0.00  0.00    +0.000 C 
ATOM     27  C   UNL     1     -56.759 -41.892 -74.015  0.00  0.00    +0.000 C 
ATOM     28  C   UNL     1     -57.044 -43.354 -74.180  0.00  0.00    +0.000 C 
ENDBRANCH  24  26
ENDBRANCH  13  24
TORSDOF 5
