REMARK VINA RESULT:    -6.052      3.639      6.127
REMARK INTER + INTRA:          -8.183
REMARK INTER:                  -7.452
REMARK INTRA:                  -0.731
REMARK UNBOUND:                -0.716
REMARK  Name = 
REMARK  6 active torsions:
REMARK  status: ('A' for Active; 'I' for Inactive)
REMARK    1  A    between atoms: C_1  and  C_2
REMARK    2  A    between atoms: C_2  and  C_4
REMARK    3  A    between atoms: C_5  and  S_6
REMARK    4  A    between atoms: S_6  and  C_8
REMARK    5  A    between atoms: C_8  and  C_9
REMARK    6  A    between atoms: C_11  and  C_12
REMARK                            x       y       z     vdW  Elec       q    Type
REMARK                         _______ _______ _______ _____ _____    ______ ____
ROOT
ATOM      1  C   UNL     1     -57.383 -42.581 -76.562  0.00  0.00    +0.000 A 
ATOM      2  C   UNL     1     -56.213 -43.258 -76.568  0.00  0.00    +0.000 A 
ATOM      3  N   UNL     1     -56.085 -44.556 -77.025  0.00  0.00    +0.000 N 
ATOM      4  C   UNL     1     -57.191 -45.350 -77.375  0.00  0.00    +0.000 A 
ATOM      5  C   UNL     1     -57.016 -46.686 -77.779  0.00  0.00    +0.000 A 
ATOM      6 BR   UNL     1     -55.295 -47.492 -77.785  0.00  0.00    +0.000 Br
ATOM      7  C   UNL     1     -58.101 -47.463 -78.180  0.00  0.00    +0.000 A 
ATOM      8  C   UNL     1     -59.376 -46.903 -78.193  0.00  0.00    +0.000 A 
ATOM      9  C   UNL     1     -59.572 -45.572 -77.819  0.00  0.00    +0.000 A 
ATOM     10 CL   UNL     1     -61.213 -45.025 -77.877  0.00  0.00    +0.000 Cl
ATOM     11  C   UNL     1     -58.473 -44.779 -77.426  0.00  0.00    +0.000 A 
ATOM     12  C   UNL     1     -58.592 -43.350 -77.020  0.00  0.00    +0.000 A 
ATOM     13  O   UNL     1     -59.693 -42.807 -77.019  0.00  0.00    +0.000 OA
ATOM     14  H   UNL     1     -55.281 -45.070 -76.657  0.00  0.00    +0.000 HD
ENDROOT
BRANCH   1  16
ATOM     15  C   UNL     1     -57.364 -40.024 -77.082  0.00  0.00    +0.000 C 
ATOM     16  C   UNL     1     -57.544 -41.155 -76.094  0.00  0.00    +0.000 C 
ATOM     17  O   UNL     1     -57.810 -40.884 -74.922  0.00  0.00    +0.000 OA
ENDBRANCH   1  16
BRANCH   2  18
ATOM     18  S   UNL     1     -54.712 -42.567 -75.798  0.00  0.00    +0.000 S 
ATOM     19  O   UNL     1     -53.932 -43.789 -75.393  0.00  0.00    +0.000 OA
BRANCH  18  20
ATOM     20  C   UNL     1     -53.880 -41.910 -77.291  0.00  0.00    +0.000 C 
BRANCH  20  21
ATOM     21  C   UNL     1     -53.079 -40.682 -76.998  0.00  0.00    +0.000 A 
ATOM     22  C   UNL     1     -53.355 -39.319 -77.283  0.00  0.00    +0.000 A 
ATOM     23  C   UNL     1     -52.270 -38.635 -76.791  0.00  0.00    +0.000 A 
ATOM     24  C   UNL     1     -51.854 -37.220 -76.788  0.00  0.00    +0.000 C 
ATOM     25  O   UNL     1     -51.422 -39.516 -76.199  0.00  0.00    +0.000 OA
ATOM     26  N   UNL     1     -51.928 -40.798 -76.320  0.00  0.00    +0.000 NA
ENDBRANCH  20  21
ENDBRANCH  18  20
ENDBRANCH   2  18
TORSDOF 4
