REMARK VINA RESULT:    -5.107     12.130     15.129
REMARK INTER + INTRA:          -6.981
REMARK INTER:                  -6.200
REMARK INTRA:                  -0.781
REMARK UNBOUND:                -0.681
REMARK  Name = 
REMARK  6 active torsions:
REMARK  status: ('A' for Active; 'I' for Inactive)
REMARK    1  A    between atoms: C_1  and  C_2
REMARK    2  A    between atoms: C_2  and  C_4
REMARK    3  A    between atoms: C_5  and  S_6
REMARK    4  A    between atoms: S_6  and  C_8
REMARK    5  A    between atoms: C_8  and  C_9
REMARK    6  A    between atoms: C_11  and  C_12
REMARK                            x       y       z     vdW  Elec       q    Type
REMARK                         _______ _______ _______ _____ _____    ______ ____
ROOT
ATOM      1  C   UNL     1     -66.499 -41.035 -70.857  0.00  0.00    +0.000 A 
ATOM      2  C   UNL     1     -67.127 -40.698 -69.708  0.00  0.00    +0.000 A 
ATOM      3  N   UNL     1     -66.461 -40.396 -68.537  0.00  0.00    +0.000 N 
ATOM      4  C   UNL     1     -65.071 -40.541 -68.393  0.00  0.00    +0.000 A 
ATOM      5  C   UNL     1     -64.436 -40.236 -67.175  0.00  0.00    +0.000 A 
ATOM      6 BR   UNL     1     -65.442 -39.676 -65.661  0.00  0.00    +0.000 Br
ATOM      7  C   UNL     1     -63.053 -40.329 -67.041  0.00  0.00    +0.000 A 
ATOM      8  C   UNL     1     -62.284 -40.727 -68.129  0.00  0.00    +0.000 A 
ATOM      9  C   UNL     1     -62.886 -41.015 -69.360  0.00  0.00    +0.000 A 
ATOM     10 CL   UNL     1     -61.799 -41.506 -70.614  0.00  0.00    +0.000 Cl
ATOM     11  C   UNL     1     -64.284 -40.899 -69.503  0.00  0.00    +0.000 A 
ATOM     12  C   UNL     1     -65.002 -41.167 -70.780  0.00  0.00    +0.000 A 
ATOM     13  O   UNL     1     -64.374 -41.542 -71.766  0.00  0.00    +0.000 OA
ATOM     14  H   UNL     1     -67.004 -40.503 -67.681  0.00  0.00    +0.000 HD
ENDROOT
BRANCH   1  16
ATOM     15  C   UNL     1     -67.512 -42.754 -72.529  0.00  0.00    +0.000 C 
ATOM     16  C   UNL     1     -67.196 -41.319 -72.161  0.00  0.00    +0.000 C 
ATOM     17  O   UNL     1     -67.503 -40.418 -72.943  0.00  0.00    +0.000 OA
ENDBRANCH   1  16
BRANCH   2  18
ATOM     18  S   UNL     1     -68.944 -40.791 -69.556  0.00  0.00    +0.000 S 
ATOM     19  O   UNL     1     -69.205 -42.264 -69.389  0.00  0.00    +0.000 OA
BRANCH  18  20
ATOM     20  C   UNL     1     -69.144 -40.057 -67.892  0.00  0.00    +0.000 C 
BRANCH  20  21
ATOM     21  C   UNL     1     -69.790 -38.713 -67.969  0.00  0.00    +0.000 A 
ATOM     22  C   UNL     1     -70.254 -37.880 -66.917  0.00  0.00    +0.000 A 
ATOM     23  C   UNL     1     -70.721 -36.753 -67.549  0.00  0.00    +0.000 A 
ATOM     24  C   UNL     1     -71.349 -35.497 -67.097  0.00  0.00    +0.000 C 
ATOM     25  O   UNL     1     -70.538 -36.888 -68.889  0.00  0.00    +0.000 OA
ATOM     26  N   UNL     1     -69.947 -38.110 -69.157  0.00  0.00    +0.000 NA
ENDBRANCH  20  21
ENDBRANCH  18  20
ENDBRANCH   2  18
TORSDOF 4
