REMARK VINA RESULT:    -5.963     11.864     14.211
REMARK INTER + INTRA:          -8.834
REMARK INTER:                  -8.015
REMARK INTRA:                  -0.819
REMARK UNBOUND:                -1.127
REMARK  Name = 
REMARK  8 active torsions:
REMARK  status: ('A' for Active; 'I' for Inactive)
REMARK    1  A    between atoms: C_1  and  C_2
REMARK    2  A    between atoms: C_4  and  C_5
REMARK    3  A    between atoms: C_5  and  S_6
REMARK    4  A    between atoms: S_6  and  C_8
REMARK    5  A    between atoms: C_20  and  C_21
REMARK    6  A    between atoms: C_21  and  C_23
REMARK    7  A    between atoms: C_23  and  C_24
REMARK    8  A    between atoms: C_23  and  C_25
REMARK                            x       y       z     vdW  Elec       q    Type
REMARK                         _______ _______ _______ _____ _____    ______ ____
ROOT
ATOM      1  C   UNL     1     -54.864 -42.464 -77.528  0.00  0.00    +0.000 A 
ATOM      2  N   UNL     1     -55.447 -43.412 -78.363  0.00  0.00    +0.000 N 
ATOM      3  C   UNL     1     -54.823 -43.830 -79.555  0.00  0.00    +0.000 A 
ATOM      4  C   UNL     1     -55.153 -45.044 -80.187  0.00  0.00    +0.000 A 
ATOM      5 BR   UNL     1     -56.351 -46.272 -79.377  0.00  0.00    +0.000 Br
ATOM      6  C   UNL     1     -54.576 -45.398 -81.410  0.00  0.00    +0.000 A 
ATOM      7  C   UNL     1     -53.656 -44.547 -82.016  0.00  0.00    +0.000 A 
ATOM      8  C   UNL     1     -53.307 -43.333 -81.397  0.00  0.00    +0.000 A 
ATOM      9 CL   UNL     1     -52.104 -42.395 -82.207  0.00  0.00    +0.000 Cl
ATOM     10  C   UNL     1     -53.895 -42.972 -80.167  0.00  0.00    +0.000 A 
ATOM     11  C   UNL     1     -53.618 -41.700 -79.450  0.00  0.00    +0.000 A 
ATOM     12  O   UNL     1     -53.211 -40.722 -80.069  0.00  0.00    +0.000 OA
ATOM     13  C   UNL     1     -53.873 -41.640 -77.947  0.00  0.00    +0.000 A 
ATOM     14  H   UNL     1     -55.994 -44.127 -77.864  0.00  0.00    +0.000 HD
ENDROOT
BRANCH   1  15
ATOM     15  S   UNL     1     -55.448 -42.640 -75.800  0.00  0.00    +0.000 S 
ATOM     16  O   UNL     1     -56.258 -43.908 -75.822  0.00  0.00    +0.000 OA
BRANCH  15  17
ATOM     17  C   UNL     1     -56.589 -41.230 -75.598  0.00  0.00    +0.000 C 
BRANCH  17  21
ATOM     18  C   UNL     1     -60.257 -41.829 -71.994  0.00  0.00    +0.000 C 
ATOM     19  C   UNL     1     -59.089 -41.589 -72.870  0.00  0.00    +0.000 A 
ATOM     20  C   UNL     1     -58.789 -41.850 -74.187  0.00  0.00    +0.000 A 
ATOM     21  C   UNL     1     -57.483 -41.314 -74.384  0.00  0.00    +0.000 A 
ATOM     22  N   UNL     1     -57.031 -40.784 -73.234  0.00  0.00    +0.000 NA
ATOM     23  O   UNL     1     -58.033 -40.954 -72.298  0.00  0.00    +0.000 OA
ENDBRANCH  17  21
ENDBRANCH  15  17
ENDBRANCH   1  15
BRANCH  13  24
ATOM     24  C   UNL     1     -52.980 -40.722 -77.143  0.00  0.00    +0.000 C 
ATOM     25  O   UNL     1     -53.323 -39.560 -76.925  0.00  0.00    +0.000 OA
BRANCH  24  26
ATOM     26  C   UNL     1     -51.616 -41.207 -76.650  0.00  0.00    +0.000 C 
ATOM     27  C   UNL     1     -50.773 -40.060 -76.098  0.00  0.00    +0.000 C 
ATOM     28  C   UNL     1     -51.747 -42.320 -75.607  0.00  0.00    +0.000 C 
ENDBRANCH  24  26
ENDBRANCH  13  24
TORSDOF 5
