REMARK VINA RESULT:    -5.412     13.985     16.193
REMARK INTER + INTRA:          -7.760
REMARK INTER:                  -6.978
REMARK INTRA:                  -0.782
REMARK UNBOUND:                -1.082
REMARK  Name = 
REMARK  6 active torsions:
REMARK  status: ('A' for Active; 'I' for Inactive)
REMARK    1  A    between atoms: C_1  and  C_2
REMARK    2  A    between atoms: C_2  and  C_4
REMARK    3  A    between atoms: C_5  and  S_6
REMARK    4  A    between atoms: S_6  and  C_8
REMARK    5  A    between atoms: C_8  and  C_9
REMARK    6  A    between atoms: C_11  and  C_12
REMARK                            x       y       z     vdW  Elec       q    Type
REMARK                         _______ _______ _______ _____ _____    ______ ____
ROOT
ATOM      1  C   UNL     1     -53.917 -41.876 -79.736  0.00  0.00    +0.000 A 
ATOM      2  C   UNL     1     -54.822 -42.879 -79.700  0.00  0.00    +0.000 A 
ATOM      3  N   UNL     1     -55.034 -43.675 -78.592  0.00  0.00    +0.000 N 
ATOM      4  C   UNL     1     -54.224 -43.615 -77.447  0.00  0.00    +0.000 A 
ATOM      5  C   UNL     1     -54.450 -44.481 -76.360  0.00  0.00    +0.000 A 
ATOM      6 BR   UNL     1     -55.799 -45.817 -76.440  0.00  0.00    +0.000 Br
ATOM      7  C   UNL     1     -53.687 -44.390 -75.199  0.00  0.00    +0.000 A 
ATOM      8  C   UNL     1     -52.692 -43.422 -75.106  0.00  0.00    +0.000 A 
ATOM      9  C   UNL     1     -52.462 -42.534 -76.164  0.00  0.00    +0.000 A 
ATOM     10 CL   UNL     1     -51.187 -41.395 -75.903  0.00  0.00    +0.000 Cl
ATOM     11  C   UNL     1     -53.242 -42.616 -77.336  0.00  0.00    +0.000 A 
ATOM     12  C   UNL     1     -53.063 -41.708 -78.504  0.00  0.00    +0.000 A 
ATOM     13  O   UNL     1     -52.191 -40.851 -78.483  0.00  0.00    +0.000 OA
ATOM     14  H   UNL     1     -55.451 -44.589 -78.784  0.00  0.00    +0.000 HD
ENDROOT
BRANCH   1  16
ATOM     15  C   UNL     1     -54.327 -39.598 -80.933  0.00  0.00    +0.000 C 
ATOM     16  C   UNL     1     -53.688 -40.967 -80.917  0.00  0.00    +0.000 C 
ATOM     17  O   UNL     1     -53.003 -41.319 -81.880  0.00  0.00    +0.000 OA
ENDBRANCH   1  16
BRANCH   2  18
ATOM     18  S   UNL     1     -55.740 -43.380 -81.193  0.00  0.00    +0.000 S 
ATOM     19  O   UNL     1     -56.081 -44.822 -80.925  0.00  0.00    +0.000 OA
BRANCH  18  20
ATOM     20  C   UNL     1     -57.287 -42.440 -80.923  0.00  0.00    +0.000 C 
BRANCH  20  21
ATOM     21  C   UNL     1     -57.572 -41.485 -82.035  0.00  0.00    +0.000 A 
ATOM     22  C   UNL     1     -56.754 -41.073 -83.120  0.00  0.00    +0.000 A 
ATOM     23  C   UNL     1     -57.530 -40.185 -83.824  0.00  0.00    +0.000 A 
ATOM     24  C   UNL     1     -57.313 -39.337 -85.010  0.00  0.00    +0.000 C 
ATOM     25  O   UNL     1     -58.752 -40.103 -83.236  0.00  0.00    +0.000 OA
ATOM     26  N   UNL     1     -58.786 -40.920 -82.121  0.00  0.00    +0.000 NA
ENDBRANCH  20  21
ENDBRANCH  18  20
ENDBRANCH   2  18
TORSDOF 4
