REMARK VINA RESULT:    -5.787     12.179     15.554
REMARK INTER + INTRA:          -8.421
REMARK INTER:                  -7.412
REMARK INTRA:                  -1.009
REMARK UNBOUND:                -0.942
REMARK  Name = 
REMARK  8 active torsions:
REMARK  status: ('A' for Active; 'I' for Inactive)
REMARK    1  A    between atoms: C_1  and  C_2
REMARK    2  A    between atoms: C_4  and  C_5
REMARK    3  A    between atoms: C_5  and  S_6
REMARK    4  A    between atoms: S_6  and  C_8
REMARK    5  A    between atoms: C_20  and  C_21
REMARK    6  A    between atoms: C_21  and  C_23
REMARK    7  A    between atoms: C_23  and  C_24
REMARK    8  A    between atoms: C_23  and  C_25
REMARK                            x       y       z     vdW  Elec       q    Type
REMARK                         _______ _______ _______ _____ _____    ______ ____
ROOT
ATOM      1  C   UNL     1     -66.723 -48.712 -55.680  0.00  0.00    +0.000 A 
ATOM      2  N   UNL     1     -67.343 -49.922 -55.984  0.00  0.00    +0.000 N 
ATOM      3  C   UNL     1     -67.375 -50.990 -55.063  0.00  0.00    +0.000 A 
ATOM      4  C   UNL     1     -68.299 -52.048 -55.176  0.00  0.00    +0.000 A 
ATOM      5 CL   UNL     1     -69.552 -52.002 -56.365  0.00  0.00    +0.000 Cl
ATOM      6  C   UNL     1     -68.244 -53.145 -54.317  0.00  0.00    +0.000 A 
ATOM      7  C   UNL     1     -67.261 -53.197 -53.326  0.00  0.00    +0.000 A 
ATOM      8  C   UNL     1     -66.343 -52.148 -53.188  0.00  0.00    +0.000 A 
ATOM      9 CL   UNL     1     -65.220 -52.294 -51.886  0.00  0.00    +0.000 Cl
ATOM     10  C   UNL     1     -66.394 -51.053 -54.064  0.00  0.00    +0.000 A 
ATOM     11  C   UNL     1     -65.426 -49.927 -54.063  0.00  0.00    +0.000 A 
ATOM     12  O   UNL     1     -64.285 -50.118 -53.658  0.00  0.00    +0.000 OA
ATOM     13  C   UNL     1     -65.844 -48.583 -54.646  0.00  0.00    +0.000 A 
ATOM     14  H   UNL     1     -68.184 -49.817 -56.567  0.00  0.00    +0.000 HD
ENDROOT
BRANCH   1  15
ATOM     15  S   UNL     1     -67.432 -47.335 -56.671  0.00  0.00    +0.000 S 
ATOM     16  O   UNL     1     -68.899 -47.379 -56.343  0.00  0.00    +0.000 OA
BRANCH  15  17
ATOM     17  C   UNL     1     -67.236 -47.934 -58.399  0.00  0.00    +0.000 C 
BRANCH  17  21
ATOM     18  C   UNL     1     -62.613 -46.160 -59.888  0.00  0.00    +0.000 C 
ATOM     19  C   UNL     1     -63.922 -46.795 -59.626  0.00  0.00    +0.000 A 
ATOM     20  C   UNL     1     -64.830 -46.768 -58.593  0.00  0.00    +0.000 A 
ATOM     21  C   UNL     1     -65.910 -47.587 -59.028  0.00  0.00    +0.000 A 
ATOM     22  N   UNL     1     -65.637 -48.098 -60.241  0.00  0.00    +0.000 NA
ATOM     23  O   UNL     1     -64.403 -47.598 -60.610  0.00  0.00    +0.000 OA
ENDBRANCH  17  21
ENDBRANCH  15  17
ENDBRANCH   1  15
BRANCH  13  24
ATOM     24  C   UNL     1     -65.230 -47.377 -53.965  0.00  0.00    +0.000 C 
ATOM     25  O   UNL     1     -64.204 -46.863 -54.431  0.00  0.00    +0.000 OA
BRANCH  24  26
ATOM     26  C   UNL     1     -65.737 -46.853 -52.635  0.00  0.00    +0.000 C 
ATOM     27  C   UNL     1     -67.230 -47.096 -52.524  0.00  0.00    +0.000 C 
ATOM     28  C   UNL     1     -64.938 -47.419 -51.466  0.00  0.00    +0.000 C 
ENDBRANCH  24  26
ENDBRANCH  13  24
TORSDOF 5
