REMARK VINA RESULT:    -6.407     12.764     14.081
REMARK INTER + INTRA:          -9.181
REMARK INTER:                  -8.491
REMARK INTRA:                  -0.691
REMARK UNBOUND:                -0.901
REMARK  Name = 
REMARK  6 active torsions:
REMARK  status: ('A' for Active; 'I' for Inactive)
REMARK    1  A    between atoms: C_1  and  C_2
REMARK    2  A    between atoms: C_4  and  C_5
REMARK    3  A    between atoms: C_5  and  S_6
REMARK    4  A    between atoms: S_6  and  C_8
REMARK    5  A    between atoms: C_20  and  C_21
REMARK    6  A    between atoms: C_21  and  C_23
REMARK                            x       y       z     vdW  Elec       q    Type
REMARK                         _______ _______ _______ _____ _____    ______ ____
ROOT
ATOM      1  C   UNL     1     -55.565 -43.613 -77.551  0.00  0.00    +0.000 A 
ATOM      2  N   UNL     1     -54.283 -43.690 -76.972  0.00  0.00    +0.000 N 
ATOM      3  C   UNL     1     -53.509 -42.514 -76.770  0.00  0.00    +0.000 A 
ATOM      4  C   UNL     1     -52.428 -42.452 -75.871  0.00  0.00    +0.000 A 
ATOM      5 BR   UNL     1     -52.031 -43.903 -74.715  0.00  0.00    +0.000 Br
ATOM      6  C   UNL     1     -51.623 -41.308 -75.782  0.00  0.00    +0.000 A 
ATOM      7  C   UNL     1     -51.912 -40.195 -76.580  0.00  0.00    +0.000 A 
ATOM      8  C   UNL     1     -52.980 -40.232 -77.477  0.00  0.00    +0.000 A 
ATOM      9 CL   UNL     1     -53.297 -38.784 -78.362  0.00  0.00    +0.000 Cl
ATOM     10  C   UNL     1     -53.756 -41.396 -77.582  0.00  0.00    +0.000 A 
ATOM     11  C   UNL     1     -54.849 -41.559 -78.560  0.00  0.00    +0.000 A 
ATOM     12  O   UNL     1     -54.831 -40.994 -79.647  0.00  0.00    +0.000 OA
ATOM     13  C   UNL     1     -55.960 -42.508 -78.222  0.00  0.00    +0.000 A 
ATOM     14  H   UNL     1     -54.252 -44.348 -76.182  0.00  0.00    +0.000 HD
ENDROOT
BRANCH   1  15
ATOM     15  S   UNL     1     -56.690 -44.888 -76.924  0.00  0.00    +0.000 S 
ATOM     16  O   UNL     1     -55.892 -45.594 -75.862  0.00  0.00    +0.000 OA
BRANCH  15  17
ATOM     17  C   UNL     1     -57.032 -46.095 -78.239  0.00  0.00    +0.000 C 
BRANCH  17  21
ATOM     18  C   UNL     1     -58.505 -50.839 -76.997  0.00  0.00    +0.000 C 
ATOM     19  C   UNL     1     -58.288 -49.424 -77.354  0.00  0.00    +0.000 A 
ATOM     20  C   UNL     1     -57.180 -48.628 -77.521  0.00  0.00    +0.000 A 
ATOM     21  C   UNL     1     -57.696 -47.389 -77.960  0.00  0.00    +0.000 A 
ATOM     22  N   UNL     1     -59.040 -47.420 -77.985  0.00  0.00    +0.000 NA
ATOM     23  O   UNL     1     -59.405 -48.695 -77.607  0.00  0.00    +0.000 OA
ENDBRANCH  17  21
ENDBRANCH  15  17
ENDBRANCH   1  15
BRANCH  13  24
ATOM     24  C   UNL     1     -57.317 -41.978 -78.535  0.00  0.00    +0.000 C 
ATOM     25  O   UNL     1     -57.781 -42.087 -79.657  0.00  0.00    +0.000 OA
BRANCH  24  26
ATOM     26  C   UNL     1     -58.107 -41.362 -77.452  0.00  0.00    +0.000 C 
ATOM     27  C   UNL     1     -59.038 -40.220 -77.771  0.00  0.00    +0.000 C 
ATOM     28  C   UNL     1     -57.805 -39.967 -76.959  0.00  0.00    +0.000 C 
ENDBRANCH  24  26
ENDBRANCH  13  24
TORSDOF 5
