REMARK VINA RESULT:    -7.431      2.624      3.958
REMARK INTER + INTRA:         -10.302
REMARK INTER:                  -9.442
REMARK INTRA:                  -0.860
REMARK UNBOUND:                -0.699
REMARK  Name = 
REMARK  8 active torsions:
REMARK  status: ('A' for Active; 'I' for Inactive)
REMARK    1  A    between atoms: C_1  and  C_2
REMARK    2  A    between atoms: C_4  and  C_5
REMARK    3  A    between atoms: C_5  and  S_6
REMARK    4  A    between atoms: S_6  and  C_8
REMARK    5  A    between atoms: C_20  and  C_21
REMARK    6  A    between atoms: C_21  and  C_23
REMARK    7  A    between atoms: C_23  and  C_24
REMARK    8  A    between atoms: C_23  and  C_25
REMARK                            x       y       z     vdW  Elec       q    Type
REMARK                         _______ _______ _______ _____ _____    ______ ____
ROOT
ATOM      1  C   UNL     1     -55.373 -41.468 -63.479  0.00  0.00    +0.000 A 
ATOM      2  N   UNL     1     -54.039 -41.165 -63.738  0.00  0.00    +0.000 N 
ATOM      3  C   UNL     1     -53.063 -42.173 -63.856  0.00  0.00    +0.000 A 
ATOM      4  C   UNL     1     -51.836 -41.954 -64.511  0.00  0.00    +0.000 A 
ATOM      5 BR   UNL     1     -51.493 -40.325 -65.421  0.00  0.00    +0.000 Br
ATOM      6  C   UNL     1     -50.852 -42.947 -64.546  0.00  0.00    +0.000 A 
ATOM      7  C   UNL     1     -51.082 -44.174 -63.931  0.00  0.00    +0.000 A 
ATOM      8  C   UNL     1     -52.305 -44.415 -63.277  0.00  0.00    +0.000 A 
ATOM      9 CL   UNL     1     -52.502 -45.998 -62.615  0.00  0.00    +0.000 Cl
ATOM     10  C   UNL     1     -53.294 -43.411 -63.236  0.00  0.00    +0.000 A 
ATOM     11  C   UNL     1     -54.601 -43.556 -62.545  0.00  0.00    +0.000 A 
ATOM     12  O   UNL     1     -54.726 -44.362 -61.628  0.00  0.00    +0.000 OA
ATOM     13  C   UNL     1     -55.761 -42.668 -62.987  0.00  0.00    +0.000 A 
ATOM     14  H   UNL     1     -53.908 -40.336 -64.334  0.00  0.00    +0.000 HD
ENDROOT
BRANCH   1  15
ATOM     15  S   UNL     1     -56.491 -40.149 -64.086  0.00  0.00    +0.000 S 
ATOM     16  O   UNL     1     -56.870 -40.606 -65.468  0.00  0.00    +0.000 OA
BRANCH  15  17
ATOM     17  C   UNL     1     -55.389 -38.702 -64.237  0.00  0.00    +0.000 C 
BRANCH  17  21
ATOM     18  C   UNL     1     -56.595 -33.973 -62.508  0.00  0.00    +0.000 C 
ATOM     19  C   UNL     1     -56.396 -35.393 -62.872  0.00  0.00    +0.000 A 
ATOM     20  C   UNL     1     -55.657 -36.062 -63.821  0.00  0.00    +0.000 A 
ATOM     21  C   UNL     1     -55.911 -37.444 -63.584  0.00  0.00    +0.000 A 
ATOM     22  N   UNL     1     -56.772 -37.579 -62.560  0.00  0.00    +0.000 NA
ATOM     23  O   UNL     1     -57.067 -36.303 -62.119  0.00  0.00    +0.000 OA
ENDBRANCH  17  21
ENDBRANCH  15  17
ENDBRANCH   1  15
BRANCH  13  24
ATOM     24  C   UNL     1     -57.151 -43.250 -62.855  0.00  0.00    +0.000 C 
ATOM     25  O   UNL     1     -57.503 -44.180 -63.580  0.00  0.00    +0.000 OA
BRANCH  24  26
ATOM     26  C   UNL     1     -58.151 -42.648 -61.868  0.00  0.00    +0.000 C 
ATOM     27  C   UNL     1     -59.382 -43.534 -61.698  0.00  0.00    +0.000 C 
ATOM     28  C   UNL     1     -57.510 -42.362 -60.507  0.00  0.00    +0.000 C 
ENDBRANCH  24  26
ENDBRANCH  13  24
TORSDOF 5
