REMARK VINA RESULT:    -6.550      3.408      5.603
REMARK INTER + INTRA:          -9.703
REMARK INTER:                  -8.797
REMARK INTRA:                  -0.906
REMARK UNBOUND:                -1.238
REMARK  Name = 
REMARK  8 active torsions:
REMARK  status: ('A' for Active; 'I' for Inactive)
REMARK    1  A    between atoms: C_1  and  C_2
REMARK    2  A    between atoms: C_4  and  C_5
REMARK    3  A    between atoms: C_5  and  S_6
REMARK    4  A    between atoms: S_6  and  C_8
REMARK    5  A    between atoms: C_20  and  C_21
REMARK    6  A    between atoms: C_21  and  C_23
REMARK    7  A    between atoms: C_23  and  C_24
REMARK    8  A    between atoms: C_23  and  C_25
REMARK                            x       y       z     vdW  Elec       q    Type
REMARK                         _______ _______ _______ _____ _____    ______ ____
ROOT
ATOM      1  C   UNL     1     -57.663 -40.945 -63.063  0.00  0.00    +0.000 A 
ATOM      2  N   UNL     1     -57.171 -39.733 -62.589  0.00  0.00    +0.000 N 
ATOM      3  C   UNL     1     -56.061 -39.103 -63.185  0.00  0.00    +0.000 A 
ATOM      4  C   UNL     1     -55.801 -37.729 -63.020  0.00  0.00    +0.000 A 
ATOM      5 BR   UNL     1     -57.031 -36.606 -62.112  0.00  0.00    +0.000 Br
ATOM      6  C   UNL     1     -54.651 -37.145 -63.558  0.00  0.00    +0.000 A 
ATOM      7  C   UNL     1     -53.746 -37.924 -64.273  0.00  0.00    +0.000 A 
ATOM      8  C   UNL     1     -53.990 -39.298 -64.455  0.00  0.00    +0.000 A 
ATOM      9 CL   UNL     1     -52.834 -40.145 -65.418  0.00  0.00    +0.000 Cl
ATOM     10  C   UNL     1     -55.147 -39.888 -63.907  0.00  0.00    +0.000 A 
ATOM     11  C   UNL     1     -55.479 -41.332 -64.015  0.00  0.00    +0.000 A 
ATOM     12  O   UNL     1     -54.588 -42.155 -64.204  0.00  0.00    +0.000 OA
ATOM     13  C   UNL     1     -56.936 -41.759 -63.865  0.00  0.00    +0.000 A 
ATOM     14  H   UNL     1     -57.895 -39.108 -62.210  0.00  0.00    +0.000 HD
ENDROOT
BRANCH   1  15
ATOM     15  S   UNL     1     -59.434 -41.160 -62.645  0.00  0.00    +0.000 S 
ATOM     16  O   UNL     1     -59.923 -39.755 -62.420  0.00  0.00    +0.000 OA
BRANCH  15  17
ATOM     17  C   UNL     1     -59.384 -42.019 -61.036  0.00  0.00    +0.000 C 
BRANCH  17  21
ATOM     18  C   UNL     1     -61.729 -46.631 -61.219  0.00  0.00    +0.000 C 
ATOM     19  C   UNL     1     -61.224 -45.250 -61.058  0.00  0.00    +0.000 A 
ATOM     20  C   UNL     1     -60.046 -44.602 -61.354  0.00  0.00    +0.000 A 
ATOM     21  C   UNL     1     -60.255 -43.251 -60.954  0.00  0.00    +0.000 A 
ATOM     22  N   UNL     1     -61.485 -43.117 -60.429  0.00  0.00    +0.000 NA
ATOM     23  O   UNL     1     -62.084 -44.360 -60.499  0.00  0.00    +0.000 OA
ENDBRANCH  17  21
ENDBRANCH  15  17
ENDBRANCH   1  15
BRANCH  13  24
ATOM     24  C   UNL     1     -57.371 -42.979 -64.646  0.00  0.00    +0.000 C 
ATOM     25  O   UNL     1     -57.431 -44.078 -64.094  0.00  0.00    +0.000 OA
BRANCH  24  26
ATOM     26  C   UNL     1     -57.675 -42.873 -66.140  0.00  0.00    +0.000 C 
ATOM     27  C   UNL     1     -57.807 -44.247 -66.791  0.00  0.00    +0.000 C 
ATOM     28  C   UNL     1     -58.927 -42.034 -66.411  0.00  0.00    +0.000 C 
ENDBRANCH  24  26
ENDBRANCH  13  24
TORSDOF 5
