REMARK VINA RESULT:    -5.979      3.609      5.070
REMARK INTER + INTRA:          -8.643
REMARK INTER:                  -7.517
REMARK INTRA:                  -1.127
REMARK UNBOUND:                -0.917
REMARK  Name = 
REMARK  6 active torsions:
REMARK  status: ('A' for Active; 'I' for Inactive)
REMARK    1  A    between atoms: C_1  and  C_2
REMARK    2  A    between atoms: C_4  and  C_5
REMARK    3  A    between atoms: C_5  and  S_6
REMARK    4  A    between atoms: S_6  and  C_8
REMARK    5  A    between atoms: C_20  and  C_21
REMARK    6  A    between atoms: C_21  and  C_23
REMARK                            x       y       z     vdW  Elec       q    Type
REMARK                         _______ _______ _______ _____ _____    ______ ____
ROOT
ATOM      1  C   UNL     1     -55.937 -43.745 -78.198  0.00  0.00    +0.000 A 
ATOM      2  N   UNL     1     -55.356 -44.858 -77.559  0.00  0.00    +0.000 N 
ATOM      3  C   UNL     1     -54.354 -44.681 -76.567  0.00  0.00    +0.000 A 
ATOM      4  C   UNL     1     -54.016 -45.676 -75.631  0.00  0.00    +0.000 A 
ATOM      5 BR   UNL     1     -55.012 -47.285 -75.510  0.00  0.00    +0.000 Br
ATOM      6  C   UNL     1     -52.947 -45.501 -74.740  0.00  0.00    +0.000 A 
ATOM      7  C   UNL     1     -52.217 -44.307 -74.760  0.00  0.00    +0.000 A 
ATOM      8  C   UNL     1     -52.535 -43.305 -75.678  0.00  0.00    +0.000 A 
ATOM      9 CL   UNL     1     -51.622 -41.843 -75.573  0.00  0.00    +0.000 Cl
ATOM     10  C   UNL     1     -53.584 -43.507 -76.587  0.00  0.00    +0.000 A 
ATOM     11  C   UNL     1     -53.937 -42.543 -77.647  0.00  0.00    +0.000 A 
ATOM     12  O   UNL     1     -53.097 -41.816 -78.164  0.00  0.00    +0.000 OA
ATOM     13  C   UNL     1     -55.353 -42.527 -78.141  0.00  0.00    +0.000 A 
ATOM     14  H   UNL     1     -56.052 -45.577 -77.322  0.00  0.00    +0.000 HD
ENDROOT
BRANCH   1  15
ATOM     15  S   UNL     1     -57.666 -44.031 -78.659  0.00  0.00    +0.000 S 
ATOM     16  O   UNL     1     -58.377 -44.197 -77.344  0.00  0.00    +0.000 OA
BRANCH  15  17
ATOM     17  C   UNL     1     -57.802 -45.607 -79.554  0.00  0.00    +0.000 C 
BRANCH  17  21
ATOM     18  C   UNL     1     -58.106 -50.083 -77.086  0.00  0.00    +0.000 C 
ATOM     19  C   UNL     1     -58.225 -48.771 -77.748  0.00  0.00    +0.000 A 
ATOM     20  C   UNL     1     -57.341 -47.913 -78.361  0.00  0.00    +0.000 A 
ATOM     21  C   UNL     1     -58.150 -46.871 -78.864  0.00  0.00    +0.000 A 
ATOM     22  N   UNL     1     -59.434 -47.057 -78.511  0.00  0.00    +0.000 NA
ATOM     23  O   UNL     1     -59.475 -48.247 -77.815  0.00  0.00    +0.000 OA
ENDBRANCH  17  21
ENDBRANCH  15  17
ENDBRANCH   1  15
BRANCH  13  24
ATOM     24  C   UNL     1     -55.912 -41.157 -78.315  0.00  0.00    +0.000 C 
ATOM     25  O   UNL     1     -56.085 -40.695 -79.430  0.00  0.00    +0.000 OA
BRANCH  24  26
ATOM     26  C   UNL     1     -56.298 -40.388 -77.116  0.00  0.00    +0.000 C 
ATOM     27  C   UNL     1     -56.730 -41.122 -75.873  0.00  0.00    +0.000 C 
ATOM     28  C   UNL     1     -57.734 -40.328 -76.653  0.00  0.00    +0.000 C 
ENDBRANCH  24  26
ENDBRANCH  13  24
TORSDOF 5
