REMARK VINA RESULT:    -5.766     11.874     14.463
REMARK INTER + INTRA:          -8.353
REMARK INTER:                  -7.271
REMARK INTRA:                  -1.082
REMARK UNBOUND:                -0.901
REMARK  Name = 
REMARK  6 active torsions:
REMARK  status: ('A' for Active; 'I' for Inactive)
REMARK    1  A    between atoms: C_1  and  C_2
REMARK    2  A    between atoms: C_4  and  C_5
REMARK    3  A    between atoms: C_5  and  S_6
REMARK    4  A    between atoms: S_6  and  C_8
REMARK    5  A    between atoms: C_20  and  C_21
REMARK    6  A    between atoms: C_21  and  C_23
REMARK                            x       y       z     vdW  Elec       q    Type
REMARK                         _______ _______ _______ _____ _____    ______ ____
ROOT
ATOM      1  C   UNL     1     -55.159 -43.413 -77.647  0.00  0.00    +0.000 A 
ATOM      2  N   UNL     1     -56.516 -43.760 -77.494  0.00  0.00    +0.000 N 
ATOM      3  C   UNL     1     -57.320 -43.121 -76.512  0.00  0.00    +0.000 A 
ATOM      4  C   UNL     1     -58.727 -43.119 -76.554  0.00  0.00    +0.000 A 
ATOM      5 BR   UNL     1     -59.663 -43.829 -78.043  0.00  0.00    +0.000 Br
ATOM      6  C   UNL     1     -59.483 -42.572 -75.508  0.00  0.00    +0.000 A 
ATOM      7  C   UNL     1     -58.832 -41.991 -74.413  0.00  0.00    +0.000 A 
ATOM      8  C   UNL     1     -57.439 -41.979 -74.350  0.00  0.00    +0.000 A 
ATOM      9 CL   UNL     1     -56.733 -41.176 -72.994  0.00  0.00    +0.000 Cl
ATOM     10  C   UNL     1     -56.694 -42.562 -75.387  0.00  0.00    +0.000 A 
ATOM     11  C   UNL     1     -55.222 -42.673 -75.367  0.00  0.00    +0.000 A 
ATOM     12  O   UNL     1     -54.598 -42.782 -74.319  0.00  0.00    +0.000 OA
ATOM     13  C   UNL     1     -54.504 -42.730 -76.682  0.00  0.00    +0.000 A 
ATOM     14  H   UNL     1     -56.989 -43.887 -78.399  0.00  0.00    +0.000 HD
ENDROOT
BRANCH   1  15
ATOM     15  S   UNL     1     -54.588 -43.570 -79.359  0.00  0.00    +0.000 S 
ATOM     16  O   UNL     1     -55.050 -42.300 -80.020  0.00  0.00    +0.000 OA
BRANCH  15  17
ATOM     17  C   UNL     1     -55.456 -44.948 -80.164  0.00  0.00    +0.000 C 
BRANCH  17  21
ATOM     18  C   UNL     1     -55.473 -49.548 -77.916  0.00  0.00    +0.000 C 
ATOM     19  C   UNL     1     -55.386 -48.324 -78.733  0.00  0.00    +0.000 A 
ATOM     20  C   UNL     1     -55.784 -47.019 -78.564  0.00  0.00    +0.000 A 
ATOM     21  C   UNL     1     -55.296 -46.348 -79.707  0.00  0.00    +0.000 A 
ATOM     22  N   UNL     1     -54.702 -47.215 -80.545  0.00  0.00    +0.000 NA
ATOM     23  O   UNL     1     -54.759 -48.448 -79.930  0.00  0.00    +0.000 OA
ENDBRANCH  17  21
ENDBRANCH  15  17
ENDBRANCH   1  15
BRANCH  13  24
ATOM     24  C   UNL     1     -53.281 -41.879 -76.735  0.00  0.00    +0.000 C 
ATOM     25  O   UNL     1     -52.172 -42.383 -76.693  0.00  0.00    +0.000 OA
BRANCH  24  26
ATOM     26  C   UNL     1     -53.437 -40.420 -76.886  0.00  0.00    +0.000 C 
ATOM     27  C   UNL     1     -54.632 -39.874 -77.624  0.00  0.00    +0.000 C 
ATOM     28  C   UNL     1     -53.267 -39.750 -78.229  0.00  0.00    +0.000 C 
ENDBRANCH  24  26
ENDBRANCH  13  24
TORSDOF 5
