REMARK VINA RESULT:    -5.760      3.973      7.113
REMARK INTER + INTRA:          -8.623
REMARK INTER:                  -7.826
REMARK INTRA:                  -0.797
REMARK UNBOUND:                -1.180
REMARK  Name = 
REMARK  6 active torsions:
REMARK  status: ('A' for Active; 'I' for Inactive)
REMARK    1  A    between atoms: C_1  and  C_2
REMARK    2  A    between atoms: C_2  and  C_4
REMARK    3  A    between atoms: C_5  and  S_6
REMARK    4  A    between atoms: S_6  and  C_8
REMARK    5  A    between atoms: C_8  and  C_9
REMARK    6  A    between atoms: C_12  and  C_13
REMARK                            x       y       z     vdW  Elec       q    Type
REMARK                         _______ _______ _______ _____ _____    ______ ____
ROOT
ATOM      1  C   UNL     1     -55.127 -44.513 -78.306  0.00  0.00    +0.000 A 
ATOM      2  C   UNL     1     -54.830 -43.482 -77.489  0.00  0.00    +0.000 A 
ATOM      3  N   UNL     1     -54.486 -42.230 -77.958  0.00  0.00    +0.000 N 
ATOM      4  C   UNL     1     -54.330 -41.921 -79.313  0.00  0.00    +0.000 A 
ATOM      5  C   UNL     1     -53.998 -40.621 -79.736  0.00  0.00    +0.000 A 
ATOM      6 BR   UNL     1     -53.687 -39.230 -78.481  0.00  0.00    +0.000 Br
ATOM      7  C   UNL     1     -53.891 -40.311 -81.092  0.00  0.00    +0.000 A 
ATOM      8  C   UNL     1     -54.111 -41.303 -82.045  0.00  0.00    +0.000 A 
ATOM      9  C   UNL     1     -54.450 -42.602 -81.650  0.00  0.00    +0.000 A 
ATOM     10 CL   UNL     1     -54.690 -43.724 -82.944  0.00  0.00    +0.000 Cl
ATOM     11  C   UNL     1     -54.577 -42.911 -80.282  0.00  0.00    +0.000 A 
ATOM     12  C   UNL     1     -54.957 -44.264 -79.782  0.00  0.00    +0.000 A 
ATOM     13  O   UNL     1     -55.097 -45.196 -80.564  0.00  0.00    +0.000 OA
ATOM     14  H   UNL     1     -54.140 -41.572 -77.251  0.00  0.00    +0.000 HD
ENDROOT
BRANCH   1  16
ATOM     15  C   UNL     1     -57.065 -46.096 -77.648  0.00  0.00    +0.000 C 
ATOM     16  C   UNL     1     -55.583 -45.865 -77.841  0.00  0.00    +0.000 C 
ATOM     17  O   UNL     1     -54.781 -46.757 -77.569  0.00  0.00    +0.000 OA
ENDBRANCH   1  16
BRANCH   2  18
ATOM     18  S   UNL     1     -54.687 -43.644 -75.681  0.00  0.00    +0.000 S 
ATOM     19  O   UNL     1     -53.206 -43.824 -75.465  0.00  0.00    +0.000 OA
BRANCH  18  20
ATOM     20  C   UNL     1     -55.122 -41.948 -75.153  0.00  0.00    +0.000 C 
BRANCH  20  21
ATOM     21  C   UNL     1     -56.425 -41.889 -74.375  0.00  0.00    +0.000 A 
ATOM     22  C   UNL     1     -57.663 -41.881 -75.037  0.00  0.00    +0.000 A 
ATOM     23  C   UNL     1     -58.863 -41.836 -74.321  0.00  0.00    +0.000 A 
ATOM     24  C   UNL     1     -58.851 -41.816 -72.924  0.00  0.00    +0.000 A 
ATOM     25  C   UNL     1     -57.623 -41.838 -72.252  0.00  0.00    +0.000 A 
ATOM     26  C   UNL     1     -56.422 -41.871 -72.971  0.00  0.00    +0.000 A 
BRANCH  24  27
ATOM     27  C   UNL     1     -60.084 -41.771 -72.186  0.00  0.00    +0.000 C 
ATOM     28  N   UNL     1     -61.076 -41.736 -71.587  0.00  0.00    +0.000 NA
ENDBRANCH  24  27
ENDBRANCH  20  21
ENDBRANCH  18  20
ENDBRANCH   2  18
TORSDOF 5
