REMARK VINA RESULT:    -5.750      5.475      8.183
REMARK INTER + INTRA:          -8.428
REMARK INTER:                  -7.336
REMARK INTRA:                  -1.092
REMARK UNBOUND:                -0.997
REMARK  Name = 
REMARK  8 active torsions:
REMARK  status: ('A' for Active; 'I' for Inactive)
REMARK    1  A    between atoms: C_1  and  C_2
REMARK    2  A    between atoms: C_4  and  C_5
REMARK    3  A    between atoms: C_5  and  S_6
REMARK    4  A    between atoms: S_6  and  C_8
REMARK    5  A    between atoms: C_20  and  C_21
REMARK    6  A    between atoms: C_21  and  C_23
REMARK    7  A    between atoms: C_23  and  C_24
REMARK    8  A    between atoms: C_23  and  C_25
REMARK                            x       y       z     vdW  Elec       q    Type
REMARK                         _______ _______ _______ _____ _____    ______ ____
ROOT
ATOM      1  C   UNL     1     -58.174 -45.323 -77.762  0.00  0.00    +0.000 A 
ATOM      2  N   UNL     1     -59.513 -45.119 -78.087  0.00  0.00    +0.000 N 
ATOM      3  C   UNL     1     -60.356 -46.188 -78.459  0.00  0.00    +0.000 A 
ATOM      4  C   UNL     1     -61.760 -46.083 -78.413  0.00  0.00    +0.000 A 
ATOM      5 CL   UNL     1     -62.520 -44.684 -77.740  0.00  0.00    +0.000 Cl
ATOM      6  C   UNL     1     -62.574 -47.114 -78.883  0.00  0.00    +0.000 A 
ATOM      7  C   UNL     1     -61.990 -48.270 -79.405  0.00  0.00    +0.000 A 
ATOM      8  C   UNL     1     -60.596 -48.400 -79.445  0.00  0.00    +0.000 A 
ATOM      9 CL   UNL     1     -59.994 -49.900 -80.048  0.00  0.00    +0.000 Cl
ATOM     10  C   UNL     1     -59.782 -47.354 -78.983  0.00  0.00    +0.000 A 
ATOM     11  C   UNL     1     -58.298 -47.347 -79.051  0.00  0.00    +0.000 A 
ATOM     12  O   UNL     1     -57.737 -47.992 -79.928  0.00  0.00    +0.000 OA
ATOM     13  C   UNL     1     -57.511 -46.470 -78.085  0.00  0.00    +0.000 A 
ATOM     14  H   UNL     1     -59.961 -44.375 -77.536  0.00  0.00    +0.000 HD
ENDROOT
BRANCH   1  15
ATOM     15  S   UNL     1     -57.548 -43.990 -76.662  0.00  0.00    +0.000 S 
ATOM     16  O   UNL     1     -58.612 -42.930 -76.746  0.00  0.00    +0.000 OA
BRANCH  15  17
ATOM     17  C   UNL     1     -56.077 -43.367 -77.573  0.00  0.00    +0.000 C 
BRANCH  17  21
ATOM     18  C   UNL     1     -52.093 -44.214 -74.387  0.00  0.00    +0.000 C 
ATOM     19  C   UNL     1     -53.104 -43.846 -75.402  0.00  0.00    +0.000 A 
ATOM     20  C   UNL     1     -54.360 -44.295 -75.735  0.00  0.00    +0.000 A 
ATOM     21  C   UNL     1     -54.787 -43.447 -76.795  0.00  0.00    +0.000 A 
ATOM     22  N   UNL     1     -53.818 -42.565 -77.094  0.00  0.00    +0.000 NA
ATOM     23  O   UNL     1     -52.776 -42.814 -76.221  0.00  0.00    +0.000 OA
ENDBRANCH  17  21
ENDBRANCH  15  17
ENDBRANCH   1  15
BRANCH  13  24
ATOM     24  C   UNL     1     -56.173 -47.037 -77.660  0.00  0.00    +0.000 C 
ATOM     25  O   UNL     1     -55.143 -46.698 -78.257  0.00  0.00    +0.000 OA
BRANCH  24  26
ATOM     26  C   UNL     1     -56.052 -48.132 -76.616  0.00  0.00    +0.000 C 
ATOM     27  C   UNL     1     -55.751 -49.455 -77.294  0.00  0.00    +0.000 C 
ATOM     28  C   UNL     1     -55.052 -47.763 -75.527  0.00  0.00    +0.000 C 
ENDBRANCH  24  26
ENDBRANCH  13  24
TORSDOF 5
