REMARK VINA RESULT:    -6.700      2.979      5.959
REMARK INTER + INTRA:          -9.560
REMARK INTER:                  -9.018
REMARK INTRA:                  -0.542
REMARK UNBOUND:                -0.901
REMARK  Name = 
REMARK  6 active torsions:
REMARK  status: ('A' for Active; 'I' for Inactive)
REMARK    1  A    between atoms: C_1  and  C_2
REMARK    2  A    between atoms: C_4  and  C_5
REMARK    3  A    between atoms: C_5  and  S_6
REMARK    4  A    between atoms: S_6  and  C_8
REMARK    5  A    between atoms: C_20  and  C_21
REMARK    6  A    between atoms: C_21  and  C_23
REMARK                            x       y       z     vdW  Elec       q    Type
REMARK                         _______ _______ _______ _____ _____    ______ ____
ROOT
ATOM      1  C   UNL     1     -55.533 -41.362 -62.693  0.00  0.00    +0.000 A 
ATOM      2  N   UNL     1     -55.974 -40.580 -61.608  0.00  0.00    +0.000 N 
ATOM      3  C   UNL     1     -56.320 -39.214 -61.794  0.00  0.00    +0.000 A 
ATOM      4  C   UNL     1     -57.118 -38.493 -60.885  0.00  0.00    +0.000 A 
ATOM      5 BR   UNL     1     -57.948 -39.355 -59.414  0.00  0.00    +0.000 Br
ATOM      6  C   UNL     1     -57.344 -37.120 -61.050  0.00  0.00    +0.000 A 
ATOM      7  C   UNL     1     -56.793 -36.454 -62.151  0.00  0.00    +0.000 A 
ATOM      8  C   UNL     1     -56.001 -37.148 -63.066  0.00  0.00    +0.000 A 
ATOM      9 CL   UNL     1     -55.427 -36.253 -64.427  0.00  0.00    +0.000 Cl
ATOM     10  C   UNL     1     -55.752 -38.515 -62.870  0.00  0.00    +0.000 A 
ATOM     11  C   UNL     1     -54.860 -39.311 -63.735  0.00  0.00    +0.000 A 
ATOM     12  O   UNL     1     -53.898 -38.809 -64.304  0.00  0.00    +0.000 OA
ATOM     13  C   UNL     1     -55.114 -40.785 -63.841  0.00  0.00    +0.000 A 
ATOM     14  H   UNL     1     -56.625 -41.093 -60.997  0.00  0.00    +0.000 HD
ENDROOT
BRANCH   1  15
ATOM     15  S   UNL     1     -56.011 -43.103 -62.537  0.00  0.00    +0.000 S 
ATOM     16  O   UNL     1     -57.169 -43.084 -61.576  0.00  0.00    +0.000 OA
BRANCH  15  17
ATOM     17  C   UNL     1     -54.665 -44.033 -61.746  0.00  0.00    +0.000 C 
BRANCH  17  21
ATOM     18  C   UNL     1     -50.323 -44.614 -64.397  0.00  0.00    +0.000 C 
ATOM     19  C   UNL     1     -51.555 -44.655 -63.588  0.00  0.00    +0.000 A 
ATOM     20  C   UNL     1     -52.457 -43.713 -63.153  0.00  0.00    +0.000 A 
ATOM     21  C   UNL     1     -53.462 -44.459 -62.498  0.00  0.00    +0.000 A 
ATOM     22  N   UNL     1     -53.143 -45.765 -62.480  0.00  0.00    +0.000 NA
ATOM     23  O   UNL     1     -51.951 -45.882 -63.165  0.00  0.00    +0.000 OA
ENDBRANCH  17  21
ENDBRANCH  15  17
ENDBRANCH   1  15
BRANCH  13  24
ATOM     24  C   UNL     1     -55.023 -41.311 -65.232  0.00  0.00    +0.000 C 
ATOM     25  O   UNL     1     -53.970 -41.263 -65.845  0.00  0.00    +0.000 OA
BRANCH  24  26
ATOM     26  C   UNL     1     -56.216 -41.933 -65.837  0.00  0.00    +0.000 C 
ATOM     27  C   UNL     1     -56.394 -41.896 -67.333  0.00  0.00    +0.000 C 
ATOM     28  C   UNL     1     -57.307 -41.094 -66.457  0.00  0.00    +0.000 C 
ENDBRANCH  24  26
ENDBRANCH  13  24
TORSDOF 5
