REMARK VINA RESULT:    -6.638      0.000      0.000
REMARK INTER + INTRA:          -9.031
REMARK INTER:                  -8.190
REMARK INTRA:                  -0.841
REMARK UNBOUND:                -0.841
REMARK  Name = 
REMARK  6 active torsions:
REMARK  status: ('A' for Active; 'I' for Inactive)
REMARK    1  A    between atoms: C_1  and  C_2
REMARK    2  A    between atoms: C_2  and  C_4
REMARK    3  A    between atoms: C_5  and  S_6
REMARK    4  A    between atoms: S_6  and  C_8
REMARK    5  A    between atoms: C_8  and  C_9
REMARK    6  A    between atoms: C_11  and  C_12
REMARK                            x       y       z     vdW  Elec       q    Type
REMARK                         _______ _______ _______ _____ _____    ______ ____
ROOT
ATOM      1  C   UNL     1     -56.905 -40.821 -61.864  0.00  0.00    +0.000 A 
ATOM      2  C   UNL     1     -55.934 -41.573 -62.428  0.00  0.00    +0.000 A 
ATOM      3  N   UNL     1     -54.892 -41.046 -63.167  0.00  0.00    +0.000 N 
ATOM      4  C   UNL     1     -54.824 -39.691 -63.525  0.00  0.00    +0.000 A 
ATOM      5  C   UNL     1     -53.763 -39.209 -64.317  0.00  0.00    +0.000 A 
ATOM      6 BR   UNL     1     -52.430 -40.386 -64.984  0.00  0.00    +0.000 Br
ATOM      7  C   UNL     1     -53.662 -37.859 -64.635  0.00  0.00    +0.000 A 
ATOM      8  C   UNL     1     -54.617 -36.966 -64.155  0.00  0.00    +0.000 A 
ATOM      9  C   UNL     1     -55.667 -37.417 -63.346  0.00  0.00    +0.000 A 
ATOM     10 CL   UNL     1     -56.778 -36.192 -62.838  0.00  0.00    +0.000 Cl
ATOM     11  C   UNL     1     -55.764 -38.782 -63.010  0.00  0.00    +0.000 A 
ATOM     12  C   UNL     1     -56.845 -39.341 -62.146  0.00  0.00    +0.000 A 
ATOM     13  O   UNL     1     -57.713 -38.602 -61.697  0.00  0.00    +0.000 OA
ATOM     14  H   UNL     1     -54.451 -41.694 -63.823  0.00  0.00    +0.000 HD
ENDROOT
BRANCH   1  16
ATOM     15  C   UNL     1     -59.351 -41.701 -61.691  0.00  0.00    +0.000 C 
ATOM     16  C   UNL     1     -58.031 -41.372 -61.028  0.00  0.00    +0.000 C 
ATOM     17  O   UNL     1     -57.907 -41.562 -59.821  0.00  0.00    +0.000 OA
ENDBRANCH   1  16
BRANCH   2  18
ATOM     18  S   UNL     1     -56.004 -43.395 -62.396  0.00  0.00    +0.000 S 
ATOM     19  O   UNL     1     -55.654 -43.781 -63.809  0.00  0.00    +0.000 OA
BRANCH  18  20
ATOM     20  C   UNL     1     -54.509 -43.729 -61.397  0.00  0.00    +0.000 C 
BRANCH  20  21
ATOM     21  C   UNL     1     -53.401 -44.313 -62.210  0.00  0.00    +0.000 A 
ATOM     22  C   UNL     1     -52.352 -43.672 -62.920  0.00  0.00    +0.000 A 
ATOM     23  C   UNL     1     -51.633 -44.700 -63.478  0.00  0.00    +0.000 A 
ATOM     24  C   UNL     1     -50.464 -44.778 -64.374  0.00  0.00    +0.000 C 
ATOM     25  O   UNL     1     -52.177 -45.883 -63.091  0.00  0.00    +0.000 OA
ATOM     26  N   UNL     1     -53.280 -45.647 -62.291  0.00  0.00    +0.000 NA
ENDBRANCH  20  21
ENDBRANCH  18  20
ENDBRANCH   2  18
TORSDOF 4
