REMARK VINA RESULT:    -5.987      3.459      6.047
REMARK INTER + INTRA:          -8.530
REMARK INTER:                  -7.509
REMARK INTRA:                  -1.022
REMARK UNBOUND:                -0.794
REMARK  Name = 
REMARK  8 active torsions:
REMARK  status: ('A' for Active; 'I' for Inactive)
REMARK    1  A    between atoms: C_1  and  C_2
REMARK    2  A    between atoms: C_4  and  C_5
REMARK    3  A    between atoms: C_5  and  S_6
REMARK    4  A    between atoms: S_6  and  C_8
REMARK    5  A    between atoms: C_20  and  C_21
REMARK    6  A    between atoms: C_21  and  C_23
REMARK    7  A    between atoms: C_23  and  C_24
REMARK    8  A    between atoms: C_23  and  C_25
REMARK                            x       y       z     vdW  Elec       q    Type
REMARK                         _______ _______ _______ _____ _____    ______ ____
ROOT
ATOM      1  C   UNL     1     -57.791 -43.238 -76.766  0.00  0.00    +0.000 A 
ATOM      2  N   UNL     1     -57.333 -44.459 -77.250  0.00  0.00    +0.000 N 
ATOM      3  C   UNL     1     -56.203 -45.095 -76.700  0.00  0.00    +0.000 A 
ATOM      4  C   UNL     1     -55.964 -46.473 -76.864  0.00  0.00    +0.000 A 
ATOM      5 BR   UNL     1     -57.246 -47.592 -77.702  0.00  0.00    +0.000 Br
ATOM      6  C   UNL     1     -54.795 -47.063 -76.375  0.00  0.00    +0.000 A 
ATOM      7  C   UNL     1     -53.850 -46.286 -75.712  0.00  0.00    +0.000 A 
ATOM      8  C   UNL     1     -54.072 -44.909 -75.531  0.00  0.00    +0.000 A 
ATOM      9 CL   UNL     1     -52.865 -44.064 -74.632  0.00  0.00    +0.000 Cl
ATOM     10  C   UNL     1     -55.249 -44.312 -76.031  0.00  0.00    +0.000 A 
ATOM     11  C   UNL     1     -55.561 -42.863 -75.921  0.00  0.00    +0.000 A 
ATOM     12  O   UNL     1     -54.655 -42.048 -75.782  0.00  0.00    +0.000 OA
ATOM     13  C   UNL     1     -57.020 -42.424 -76.006  0.00  0.00    +0.000 A 
ATOM     14  H   UNL     1     -58.081 -45.081 -77.588  0.00  0.00    +0.000 HD
ENDROOT
BRANCH   1  15
ATOM     15  S   UNL     1     -59.578 -43.010 -77.102  0.00  0.00    +0.000 S 
ATOM     16  O   UNL     1     -59.945 -44.213 -77.928  0.00  0.00    +0.000 OA
BRANCH  15  17
ATOM     17  C   UNL     1     -59.618 -41.536 -78.177  0.00  0.00    +0.000 C 
BRANCH  17  21
ATOM     18  C   UNL     1     -60.756 -42.595 -83.115  0.00  0.00    +0.000 C 
ATOM     19  C   UNL     1     -60.232 -42.293 -81.765  0.00  0.00    +0.000 A 
ATOM     20  C   UNL     1     -60.795 -41.963 -80.553  0.00  0.00    +0.000 A 
ATOM     21  C   UNL     1     -59.696 -41.839 -79.655  0.00  0.00    +0.000 A 
ATOM     22  N   UNL     1     -58.545 -42.063 -80.312  0.00  0.00    +0.000 NA
ATOM     23  O   UNL     1     -58.884 -42.348 -81.620  0.00  0.00    +0.000 OA
ENDBRANCH  17  21
ENDBRANCH  15  17
ENDBRANCH   1  15
BRANCH  13  24
ATOM     24  C   UNL     1     -57.406 -41.192 -75.218  0.00  0.00    +0.000 C 
ATOM     25  O   UNL     1     -57.456 -40.094 -75.771  0.00  0.00    +0.000 OA
BRANCH  24  26
ATOM     26  C   UNL     1     -57.672 -41.288 -73.715  0.00  0.00    +0.000 C 
ATOM     27  C   UNL     1     -57.787 -39.909 -73.071  0.00  0.00    +0.000 C 
ATOM     28  C   UNL     1     -58.917 -42.124 -73.407  0.00  0.00    +0.000 C 
ENDBRANCH  24  26
ENDBRANCH  13  24
TORSDOF 5
