=
 OpenBabel09162514323D

 28 30  0  0  0  0  0  0  0  0999 V2000
  -55.6630  -41.5080  -63.3920 C   0  0  0  0  0  0  0  0  0  0  0  0
  -54.3240  -41.2280  -63.6560 N   0  0  0  0  0  0  0  0  0  0  0  0
  -53.3510  -42.2480  -63.7140 C   0  0  0  0  0  0  0  0  0  0  0  0
  -52.1060  -42.0600  -64.3450 C   0  0  0  0  0  0  0  0  0  0  0  0
  -51.7730  -40.6110  -65.2260 Cl  0  0  0  0  0  0  0  0  0  0  0  0
  -51.1200  -43.0450  -64.2990 C   0  0  0  0  0  3  0  0  0  0  0  0
  -51.3700  -44.2400  -63.6210 C   0  0  0  0  0  3  0  0  0  0  0  0
  -52.6080  -44.4530  -63.0000 C   0  0  0  0  0  0  0  0  0  0  0  0
  -52.8220  -45.9930  -62.2510 Cl  0  0  0  0  0  0  0  0  0  0  0  0
  -53.5910  -43.4520  -63.0370 C   0  0  0  0  0  0  0  0  0  0  0  0
  -54.9040  -43.5340  -62.3480 C   0  0  0  0  0  0  0  0  0  0  0  0
  -55.0080  -44.2210  -61.3390 O   0  0  0  0  0  0  0  0  0  0  0  0
  -56.0680  -42.6950  -62.8590 C   0  0  0  0  0  0  0  0  0  0  0  0
  -54.1890  -40.4530  -64.3190 H   0  0  0  0  0  0  0  0  0  0  0  0
  -56.7610  -40.2020  -64.0770 S   0  0  2  0  0  0  0  0  0  0  0  0
  -57.3650  -39.5670  -62.8530 O   0  0  0  0  0  0  0  0  0  0  0  0
  -58.0850  -41.1750  -64.9030 C   0  0  0  0  0  2  0  0  0  0  0  0
  -55.9300  -43.0900  -69.1950 C   0  0  0  0  0  1  0  0  0  0  0  0
  -56.6680  -42.7110  -67.9710 C   0  0  0  0  0  0  0  0  0  0  0  0
  -56.5170  -41.7490  -67.0000 C   0  0  0  0  0  3  0  0  0  0  0  0
  -57.6280  -41.9260  -66.1280 C   0  0  0  0  0  0  0  0  0  0  0  0
  -58.3770  -42.9610  -66.5460 N   0  0  0  0  0  0  0  0  0  0  0  0
  -57.7800  -43.4410  -67.6960 O   0  0  0  0  0  0  0  0  0  0  0  0
  -57.4310  -43.3360  -62.6990 C   0  0  0  0  0  0  0  0  0  0  0  0
  -57.7530  -44.2870  -63.4230 O   0  0  0  0  0  0  0  0  0  0  0  0
  -58.4930  -42.7630  -61.7780 C   0  0  0  0  0  3  0  0  0  0  0  0
  -59.6030  -43.7780  -61.5820 C   0  0  0  0  0  1  0  0  0  0  0  0
  -57.8920  -42.2560  -60.4730 C   0  0  0  0  0  1  0  0  0  0  0  0
  1 13  2  0  0  0  0
  2  1  1  0  0  0  0
  3  2  1  0  0  0  0
  3 10  1  0  0  0  0
  4  6  1  0  0  0  0
  4  3  2  0  0  0  0
  5  4  1  0  0  0  0
  6  7  2  0  0  0  0
  7  8  1  0  0  0  0
  8  9  1  0  0  0  0
 10  8  2  0  0  0  0
 10 11  1  0  0  0  0
 11 12  2  0  0  0  0
 13 24  1  0  0  0  0
 13 11  1  0  0  0  0
 14  2  1  0  0  0  0
 15  1  1  0  0  0  0
 15 16  2  1  0  0  0
 17 15  1  0  0  0  0
 18 19  1  0  0  0  0
 19 23  1  0  0  0  0
 19 20  2  0  0  0  0
 20 21  1  0  0  0  0
 21 17  1  0  0  0  0
 22 21  2  0  0  0  0
 23 22  1  0  0  0  0
 24 26  1  0  0  0  0
 25 24  2  0  0  0  0
 26 27  1  0  0  0  0
 26 28  1  0  0  0  0
M  END
>  <MODEL>
1

>  <REMARK>
 VINA RESULT:    -7.939      0.000      0.000
 INTER + INTRA:         -11.202
 INTER:                 -10.260
 INTRA:                  -0.942
 UNBOUND:                -0.942
  Name = 
  8 active torsions:
  status: ('A' for Active; 'I' for Inactive)
    1  A    between atoms: C_1  and  C_2
    2  A    between atoms: C_4  and  C_5
    3  A    between atoms: C_5  and  S_6
    4  A    between atoms: S_6  and  C_8
    5  A    between atoms: C_20  and  C_21
    6  A    between atoms: C_21  and  C_23
    7  A    between atoms: C_23  and  C_24
    8  A    between atoms: C_23  and  C_25
                            x       y       z     vdW  Elec       q    Type
                         _______ _______ _______ _____ _____    ______ ____

>  <TORSDO>
F 5

$$$$
