REMARK VINA RESULT:    -6.369     13.536     14.602
REMARK INTER + INTRA:          -8.539
REMARK INTER:                  -8.023
REMARK INTRA:                  -0.515
REMARK UNBOUND:                -0.681
REMARK  Name = 
REMARK  6 active torsions:
REMARK  status: ('A' for Active; 'I' for Inactive)
REMARK    1  A    between atoms: C_1  and  C_2
REMARK    2  A    between atoms: C_2  and  C_4
REMARK    3  A    between atoms: C_5  and  S_6
REMARK    4  A    between atoms: S_6  and  C_8
REMARK    5  A    between atoms: C_8  and  C_9
REMARK    6  A    between atoms: C_11  and  C_12
REMARK                            x       y       z     vdW  Elec       q    Type
REMARK                         _______ _______ _______ _____ _____    ______ ____
ROOT
ATOM      1  C   UNL     1     -56.071 -42.056 -77.585  0.00  0.00    +0.000 A 
ATOM      2  C   UNL     1     -55.695 -43.188 -76.949  0.00  0.00    +0.000 A 
ATOM      3  N   UNL     1     -54.497 -43.320 -76.276  0.00  0.00    +0.000 N 
ATOM      4  C   UNL     1     -53.495 -42.335 -76.304  0.00  0.00    +0.000 A 
ATOM      5  C   UNL     1     -52.281 -42.521 -75.617  0.00  0.00    +0.000 A 
ATOM      6 BR   UNL     1     -51.927 -44.134 -74.675  0.00  0.00    +0.000 Br
ATOM      7  C   UNL     1     -51.305 -41.527 -75.598  0.00  0.00    +0.000 A 
ATOM      8  C   UNL     1     -51.533 -40.330 -76.268  0.00  0.00    +0.000 A 
ATOM      9  C   UNL     1     -52.741 -40.109 -76.942  0.00  0.00    +0.000 A 
ATOM     10 CL   UNL     1     -52.871 -38.577 -77.735  0.00  0.00    +0.000 Cl
ATOM     11  C   UNL     1     -53.738 -41.106 -76.942  0.00  0.00    +0.000 A 
ATOM     12  C   UNL     1     -55.056 -40.945 -77.617  0.00  0.00    +0.000 A 
ATOM     13  O   UNL     1     -55.302 -39.917 -78.240  0.00  0.00    +0.000 OA
ATOM     14  H   UNL     1     -54.167 -44.277 -76.146  0.00  0.00    +0.000 HD
ENDROOT
BRANCH   1  16
ATOM     15  C   UNL     1     -58.576 -41.357 -77.488  0.00  0.00    +0.000 C 
ATOM     16  C   UNL     1     -57.392 -41.866 -78.283  0.00  0.00    +0.000 C 
ATOM     17  O   UNL     1     -57.539 -42.125 -79.478  0.00  0.00    +0.000 OA
ENDBRANCH   1  16
BRANCH   2  18
ATOM     18  S   UNL     1     -56.676 -44.722 -77.078  0.00  0.00    +0.000 S 
ATOM     19  O   UNL     1     -56.428 -45.176 -78.492  0.00  0.00    +0.000 OA
BRANCH  18  20
ATOM     20  C   UNL     1     -55.665 -45.816 -76.017  0.00  0.00    +0.000 C 
BRANCH  20  21
ATOM     21  C   UNL     1     -55.794 -47.244 -76.434  0.00  0.00    +0.000 A 
ATOM     22  C   UNL     1     -56.894 -47.904 -77.043  0.00  0.00    +0.000 A 
ATOM     23  C   UNL     1     -56.458 -49.192 -77.240  0.00  0.00    +0.000 A 
ATOM     24  C   UNL     1     -57.061 -50.416 -77.801  0.00  0.00    +0.000 C 
ATOM     25  O   UNL     1     -55.177 -49.299 -76.797  0.00  0.00    +0.000 OA
ATOM     26  N   UNL     1     -54.754 -48.079 -76.300  0.00  0.00    +0.000 NA
ENDBRANCH  20  21
ENDBRANCH  18  20
ENDBRANCH   2  18
TORSDOF 4
