REMARK VINA RESULT:    -6.443     13.184     14.424
REMARK INTER + INTRA:          -8.880
REMARK INTER:                  -8.029
REMARK INTRA:                  -0.850
REMARK UNBOUND:                -0.930
REMARK  Name = 
REMARK  6 active torsions:
REMARK  status: ('A' for Active; 'I' for Inactive)
REMARK    1  A    between atoms: C_1  and  C_2
REMARK    2  A    between atoms: C_2  and  C_4
REMARK    3  A    between atoms: C_5  and  S_6
REMARK    4  A    between atoms: S_6  and  C_8
REMARK    5  A    between atoms: C_8  and  C_9
REMARK    6  A    between atoms: C_11  and  C_12
REMARK                            x       y       z     vdW  Elec       q    Type
REMARK                         _______ _______ _______ _____ _____    ______ ____
ROOT
ATOM      1  C   UNL     1     -55.817 -41.833 -78.062  0.00  0.00    +0.000 A 
ATOM      2  C   UNL     1     -55.600 -42.965 -77.353  0.00  0.00    +0.000 A 
ATOM      3  N   UNL     1     -54.577 -43.102 -76.429  0.00  0.00    +0.000 N 
ATOM      4  C   UNL     1     -53.505 -42.190 -76.386  0.00  0.00    +0.000 A 
ATOM      5  C   UNL     1     -52.346 -42.467 -75.643  0.00  0.00    +0.000 A 
ATOM      6 BR   UNL     1     -52.155 -44.109 -74.707  0.00  0.00    +0.000 Br
ATOM      7  C   UNL     1     -51.299 -41.550 -75.588  0.00  0.00    +0.000 A 
ATOM      8  C   UNL     1     -51.405 -40.340 -76.275  0.00  0.00    +0.000 A 
ATOM      9  C   UNL     1     -52.569 -40.029 -76.995  0.00  0.00    +0.000 A 
ATOM     10 CL   UNL     1     -52.556 -38.537 -77.858  0.00  0.00    +0.000 Cl
ATOM     11  C   UNL     1     -53.632 -40.945 -77.023  0.00  0.00    +0.000 A 
ATOM     12  C   UNL     1     -54.936 -40.676 -77.689  0.00  0.00    +0.000 A 
ATOM     13  O   UNL     1     -55.312 -39.527 -77.898  0.00  0.00    +0.000 OA
ATOM     14  H   UNL     1     -54.299 -44.073 -76.261  0.00  0.00    +0.000 HD
ENDROOT
BRANCH   1  16
ATOM     15  C   UNL     1     -56.463 -41.928 -80.582  0.00  0.00    +0.000 C 
ATOM     16  C   UNL     1     -56.845 -41.664 -79.138  0.00  0.00    +0.000 C 
ATOM     17  O   UNL     1     -57.996 -41.322 -78.866  0.00  0.00    +0.000 OA
ENDBRANCH   1  16
BRANCH   2  18
ATOM     18  S   UNL     1     -56.551 -44.490 -77.663  0.00  0.00    +0.000 S 
ATOM     19  O   UNL     1     -55.834 -45.518 -76.828  0.00  0.00    +0.000 OA
BRANCH  18  20
ATOM     20  C   UNL     1     -58.057 -44.029 -76.726  0.00  0.00    +0.000 C 
BRANCH  20  21
ATOM     21  C   UNL     1     -57.816 -43.079 -75.598  0.00  0.00    +0.000 A 
ATOM     22  C   UNL     1     -58.307 -41.768 -75.365  0.00  0.00    +0.000 A 
ATOM     23  C   UNL     1     -57.822 -41.427 -74.126  0.00  0.00    +0.000 A 
ATOM     24  C   UNL     1     -57.926 -40.242 -73.254  0.00  0.00    +0.000 C 
ATOM     25  O   UNL     1     -57.098 -42.467 -73.635  0.00  0.00    +0.000 OA
ATOM     26  N   UNL     1     -57.096 -43.502 -74.546  0.00  0.00    +0.000 NA
ENDBRANCH  20  21
ENDBRANCH  18  20
ENDBRANCH   2  18
TORSDOF 4
