REMARK VINA RESULT:    -5.701      3.139      5.044
REMARK INTER + INTRA:          -8.003
REMARK INTER:                  -6.889
REMARK INTRA:                  -1.114
REMARK UNBOUND:                -0.635
REMARK  Name = 
REMARK  6 active torsions:
REMARK  status: ('A' for Active; 'I' for Inactive)
REMARK    1  A    between atoms: C_1  and  C_2
REMARK    2  A    between atoms: C_4  and  C_5
REMARK    3  A    between atoms: C_5  and  S_6
REMARK    4  A    between atoms: S_6  and  C_8
REMARK    5  A    between atoms: C_20  and  C_21
REMARK    6  A    between atoms: C_21  and  C_23
REMARK                            x       y       z     vdW  Elec       q    Type
REMARK                         _______ _______ _______ _____ _____    ______ ____
ROOT
ATOM      1  C   UNL     1     -56.510 -41.857 -61.682  0.00  0.00    +0.000 A 
ATOM      2  N   UNL     1     -55.471 -41.651 -62.611  0.00  0.00    +0.000 N 
ATOM      3  C   UNL     1     -55.726 -41.719 -64.008  0.00  0.00    +0.000 A 
ATOM      4  C   UNL     1     -54.870 -41.157 -64.973  0.00  0.00    +0.000 A 
ATOM      5 BR   UNL     1     -53.383 -40.096 -64.463  0.00  0.00    +0.000 Br
ATOM      6  C   UNL     1     -55.100 -41.342 -66.344  0.00  0.00    +0.000 A 
ATOM      7  C   UNL     1     -56.216 -42.075 -66.765  0.00  0.00    +0.000 A 
ATOM      8  C   UNL     1     -57.080 -42.641 -65.827  0.00  0.00    +0.000 A 
ATOM      9 CL   UNL     1     -58.464 -43.464 -66.449  0.00  0.00    +0.000 Cl
ATOM     10  C   UNL     1     -56.818 -42.478 -64.458  0.00  0.00    +0.000 A 
ATOM     11  C   UNL     1     -57.625 -43.109 -63.396  0.00  0.00    +0.000 A 
ATOM     12  O   UNL     1     -58.192 -44.181 -63.568  0.00  0.00    +0.000 OA
ATOM     13  C   UNL     1     -57.671 -42.438 -62.055  0.00  0.00    +0.000 A 
ATOM     14  H   UNL     1     -54.855 -40.873 -62.340  0.00  0.00    +0.000 HD
ENDROOT
BRANCH   1  15
ATOM     15  S   UNL     1     -56.289 -40.891 -60.165  0.00  0.00    +0.000 S 
ATOM     16  O   UNL     1     -57.324 -41.442 -59.222  0.00  0.00    +0.000 OA
BRANCH  15  17
ATOM     17  C   UNL     1     -56.714 -39.154 -60.485  0.00  0.00    +0.000 C 
BRANCH  17  21
ATOM     18  C   UNL     1     -55.106 -36.559 -64.595  0.00  0.00    +0.000 C 
ATOM     19  C   UNL     1     -55.413 -37.207 -63.307  0.00  0.00    +0.000 A 
ATOM     20  C   UNL     1     -56.401 -38.051 -62.860  0.00  0.00    +0.000 A 
ATOM     21  C   UNL     1     -56.031 -38.361 -61.532  0.00  0.00    +0.000 A 
ATOM     22  N   UNL     1     -54.923 -37.684 -61.182  0.00  0.00    +0.000 NA
ATOM     23  O   UNL     1     -54.540 -36.965 -62.295  0.00  0.00    +0.000 OA
ENDBRANCH  17  21
ENDBRANCH  15  17
ENDBRANCH   1  15
BRANCH  13  24
ATOM     24  C   UNL     1     -59.036 -42.387 -61.458  0.00  0.00    +0.000 C 
ATOM     25  O   UNL     1     -59.340 -43.133 -60.543  0.00  0.00    +0.000 OA
BRANCH  24  26
ATOM     26  C   UNL     1     -59.995 -41.385 -61.961  0.00  0.00    +0.000 C 
ATOM     27  C   UNL     1     -59.480 -40.114 -62.585  0.00  0.00    +0.000 C 
ATOM     28  C   UNL     1     -60.181 -40.060 -61.261  0.00  0.00    +0.000 C 
ENDBRANCH  24  26
ENDBRANCH  13  24
TORSDOF 5
