REMARK VINA RESULT:    -6.034      3.906      6.616
REMARK INTER + INTRA:          -8.795
REMARK INTER:                  -8.131
REMARK INTRA:                  -0.664
REMARK UNBOUND:                -0.997
REMARK  Name = 
REMARK  8 active torsions:
REMARK  status: ('A' for Active; 'I' for Inactive)
REMARK    1  A    between atoms: C_1  and  C_2
REMARK    2  A    between atoms: C_4  and  C_5
REMARK    3  A    between atoms: C_5  and  S_6
REMARK    4  A    between atoms: S_6  and  C_8
REMARK    5  A    between atoms: C_20  and  C_21
REMARK    6  A    between atoms: C_21  and  C_23
REMARK    7  A    between atoms: C_23  and  C_24
REMARK    8  A    between atoms: C_23  and  C_25
REMARK                            x       y       z     vdW  Elec       q    Type
REMARK                         _______ _______ _______ _____ _____    ______ ____
ROOT
ATOM      1  C   UNL     1     -54.730 -40.923 -78.911  0.00  0.00    +0.000 A 
ATOM      2  N   UNL     1     -54.795 -40.376 -80.190  0.00  0.00    +0.000 N 
ATOM      3  C   UNL     1     -54.067 -40.923 -81.268  0.00  0.00    +0.000 A 
ATOM      4  C   UNL     1     -54.401 -40.652 -82.610  0.00  0.00    +0.000 A 
ATOM      5 CL   UNL     1     -55.827 -39.759 -83.002  0.00  0.00    +0.000 Cl
ATOM      6  C   UNL     1     -53.606 -41.118 -83.657  0.00  0.00    +0.000 A 
ATOM      7  C   UNL     1     -52.462 -41.869 -83.373  0.00  0.00    +0.000 A 
ATOM      8  C   UNL     1     -52.123 -42.162 -82.046  0.00  0.00    +0.000 A 
ATOM      9 CL   UNL     1     -50.727 -43.153 -81.825  0.00  0.00    +0.000 Cl
ATOM     10  C   UNL     1     -52.918 -41.679 -80.996  0.00  0.00    +0.000 A 
ATOM     11  C   UNL     1     -52.612 -41.858 -79.554  0.00  0.00    +0.000 A 
ATOM     12  O   UNL     1     -51.446 -41.990 -79.202  0.00  0.00    +0.000 OA
ATOM     13  C   UNL     1     -53.743 -41.786 -78.536  0.00  0.00    +0.000 A 
ATOM     14  H   UNL     1     -55.722 -40.001 -80.430  0.00  0.00    +0.000 HD
ENDROOT
BRANCH   1  15
ATOM     15  S   UNL     1     -56.241 -40.527 -77.941  0.00  0.00    +0.000 S 
ATOM     16  O   UNL     1     -55.808 -40.720 -76.514  0.00  0.00    +0.000 OA
BRANCH  15  17
ATOM     17  C   UNL     1     -57.373 -41.912 -78.366  0.00  0.00    +0.000 C 
BRANCH  17  21
ATOM     18  C   UNL     1     -59.533 -41.269 -83.020  0.00  0.00    +0.000 C 
ATOM     19  C   UNL     1     -59.103 -41.407 -81.612  0.00  0.00    +0.000 A 
ATOM     20  C   UNL     1     -57.976 -41.877 -80.978  0.00  0.00    +0.000 A 
ATOM     21  C   UNL     1     -58.218 -41.668 -79.591  0.00  0.00    +0.000 A 
ATOM     22  N   UNL     1     -59.438 -41.133 -79.415  0.00  0.00    +0.000 NA
ATOM     23  O   UNL     1     -59.981 -40.967 -80.674  0.00  0.00    +0.000 OA
ENDBRANCH  17  21
ENDBRANCH  15  17
ENDBRANCH   1  15
BRANCH  13  24
ATOM     24  C   UNL     1     -53.570 -42.687 -77.331  0.00  0.00    +0.000 C 
ATOM     25  O   UNL     1     -53.992 -43.850 -77.366  0.00  0.00    +0.000 OA
BRANCH  24  26
ATOM     26  C   UNL     1     -53.028 -42.176 -76.009  0.00  0.00    +0.000 C 
ATOM     27  C   UNL     1     -52.525 -43.340 -75.177  0.00  0.00    +0.000 C 
ATOM     28  C   UNL     1     -51.989 -41.079 -76.214  0.00  0.00    +0.000 C 
ENDBRANCH  24  26
ENDBRANCH  13  24
TORSDOF 5
