REMARK VINA RESULT:    -5.671     12.684     15.090
REMARK INTER + INTRA:          -8.455
REMARK INTER:                  -7.459
REMARK INTRA:                  -0.997
REMARK UNBOUND:                -1.127
REMARK  Name = 
REMARK  8 active torsions:
REMARK  status: ('A' for Active; 'I' for Inactive)
REMARK    1  A    between atoms: C_1  and  C_2
REMARK    2  A    between atoms: C_4  and  C_5
REMARK    3  A    between atoms: C_5  and  S_6
REMARK    4  A    between atoms: S_6  and  C_8
REMARK    5  A    between atoms: C_20  and  C_21
REMARK    6  A    between atoms: C_21  and  C_23
REMARK    7  A    between atoms: C_23  and  C_24
REMARK    8  A    between atoms: C_23  and  C_25
REMARK                            x       y       z     vdW  Elec       q    Type
REMARK                         _______ _______ _______ _____ _____    ______ ____
ROOT
ATOM      1  C   UNL     1     -55.299 -43.402 -78.401  0.00  0.00    +0.000 A 
ATOM      2  N   UNL     1     -55.322 -44.326 -79.442  0.00  0.00    +0.000 N 
ATOM      3  C   UNL     1     -54.657 -44.083 -80.659  0.00  0.00    +0.000 A 
ATOM      4  C   UNL     1     -54.308 -45.123 -81.542  0.00  0.00    +0.000 A 
ATOM      5 BR   UNL     1     -54.572 -46.939 -81.064  0.00  0.00    +0.000 Br
ATOM      6  C   UNL     1     -53.719 -44.848 -82.780  0.00  0.00    +0.000 A 
ATOM      7  C   UNL     1     -53.465 -43.530 -83.150  0.00  0.00    +0.000 A 
ATOM      8  C   UNL     1     -53.798 -42.477 -82.279  0.00  0.00    +0.000 A 
ATOM      9 CL   UNL     1     -53.370 -40.893 -82.817  0.00  0.00    +0.000 Cl
ATOM     10  C   UNL     1     -54.399 -42.754 -81.034  0.00  0.00    +0.000 A 
ATOM     11  C   UNL     1     -54.818 -41.714 -80.059  0.00  0.00    +0.000 A 
ATOM     12  O   UNL     1     -55.061 -40.574 -80.443  0.00  0.00    +0.000 OA
ATOM     13  C   UNL     1     -54.958 -42.105 -78.591  0.00  0.00    +0.000 A 
ATOM     14  H   UNL     1     -55.348 -45.306 -79.129  0.00  0.00    +0.000 HD
ENDROOT
BRANCH   1  15
ATOM     15  S   UNL     1     -55.568 -44.210 -76.779  0.00  0.00    +0.000 S 
ATOM     16  O   UNL     1     -55.490 -45.680 -77.092  0.00  0.00    +0.000 OA
BRANCH  15  17
ATOM     17  C   UNL     1     -57.300 -43.794 -76.384  0.00  0.00    +0.000 C 
BRANCH  17  21
ATOM     18  C   UNL     1     -57.140 -40.482 -72.408  0.00  0.00    +0.000 C 
ATOM     19  C   UNL     1     -57.356 -41.326 -73.605  0.00  0.00    +0.000 A 
ATOM     20  C   UNL     1     -56.649 -42.328 -74.230  0.00  0.00    +0.000 A 
ATOM     21  C   UNL     1     -57.465 -42.726 -75.328  0.00  0.00    +0.000 A 
ATOM     22  N   UNL     1     -58.583 -41.981 -75.359  0.00  0.00    +0.000 NA
ATOM     23  O   UNL     1     -58.512 -41.116 -74.284  0.00  0.00    +0.000 OA
ENDBRANCH  17  21
ENDBRANCH  15  17
ENDBRANCH   1  15
BRANCH  13  24
ATOM     24  C   UNL     1     -54.663 -41.028 -77.570  0.00  0.00    +0.000 C 
ATOM     25  O   UNL     1     -55.581 -40.366 -77.087  0.00  0.00    +0.000 OA
BRANCH  24  26
ATOM     26  C   UNL     1     -53.220 -40.708 -77.179  0.00  0.00    +0.000 C 
ATOM     27  C   UNL     1     -52.221 -41.570 -77.947  0.00  0.00    +0.000 C 
ATOM     28  C   UNL     1     -52.893 -39.223 -77.365  0.00  0.00    +0.000 C 
ENDBRANCH  24  26
ENDBRANCH  13  24
TORSDOF 5
