REMARK VINA RESULT:    -6.975      3.729      6.092
REMARK INTER + INTRA:          -9.348
REMARK INTER:                  -8.549
REMARK INTRA:                  -0.798
REMARK UNBOUND:                -0.741
REMARK  Name = 
REMARK  5 active torsions:
REMARK  status: ('A' for Active; 'I' for Inactive)
REMARK    1  A    between atoms: C_1  and  C_2
REMARK    2  A    between atoms: C_2  and  C_4
REMARK    3  A    between atoms: C_5  and  S_6
REMARK    4  A    between atoms: S_6  and  C_8
REMARK    5  A    between atoms: C_8  and  C_9
REMARK                            x       y       z     vdW  Elec       q    Type
REMARK                         _______ _______ _______ _____ _____    ______ ____
ROOT
ATOM      1  C   UNL     1     -53.850 -41.323 -78.427  0.00  0.00    +0.000 A 
ATOM      2  C   UNL     1     -54.740 -42.338 -78.398  0.00  0.00    +0.000 A 
ATOM      3  N   UNL     1     -54.777 -43.297 -77.400  0.00  0.00    +0.000 N 
ATOM      4  C   UNL     1     -53.723 -43.437 -76.482  0.00  0.00    +0.000 A 
ATOM      5  C   UNL     1     -53.657 -44.548 -75.622  0.00  0.00    +0.000 A 
ATOM      6 BR   UNL     1     -54.957 -45.929 -75.709  0.00  0.00    +0.000 Br
ATOM      7  C   UNL     1     -52.627 -44.668 -74.695  0.00  0.00    +0.000 A 
ATOM      8  C   UNL     1     -51.653 -43.674 -74.613  0.00  0.00    +0.000 A 
ATOM      9  C   UNL     1     -51.717 -42.547 -75.440  0.00  0.00    +0.000 A 
ATOM     10 CL   UNL     1     -50.416 -41.420 -75.288  0.00  0.00    +0.000 Cl
ATOM     11  C   UNL     1     -52.770 -42.411 -76.357  0.00  0.00    +0.000 A 
ATOM     12  C   UNL     1     -52.961 -41.216 -77.226  0.00  0.00    +0.000 A 
ATOM     13  O   UNL     1     -52.431 -40.144 -76.953  0.00  0.00    +0.000 OA
ATOM     14  H   UNL     1     -55.210 -44.178 -77.684  0.00  0.00    +0.000 HD
ENDROOT
BRANCH   1  16
ATOM     15  C   UNL     1     -54.110 -38.890 -79.318  0.00  0.00    +0.000 C 
ATOM     16  C   UNL     1     -53.712 -40.330 -79.545  0.00  0.00    +0.000 C 
ATOM     17  O   UNL     1     -53.271 -40.666 -80.650  0.00  0.00    +0.000 OA
ENDBRANCH   1  16
BRANCH   2  18
ATOM     18  S   UNL     1     -55.872 -42.627 -79.782  0.00  0.00    +0.000 S 
ATOM     19  O   UNL     1     -56.333 -44.043 -79.573  0.00  0.00    +0.000 OA
BRANCH  18  20
ATOM     20  C   UNL     1     -57.275 -41.568 -79.263  0.00  0.00    +0.000 C 
BRANCH  20  21
ATOM     21  C   UNL     1     -57.581 -41.445 -77.789  0.00  0.00    +0.000 A 
ATOM     22  C   UNL     1     -57.277 -40.308 -77.035  0.00  0.00    +0.000 A 
ATOM     23  C   UNL     1     -57.650 -40.225 -75.690  0.00  0.00    +0.000 A 
ATOM     24  C   UNL     1     -58.356 -41.264 -75.088  0.00  0.00    +0.000 A 
ATOM     25  C   UNL     1     -58.694 -42.389 -75.834  0.00  0.00    +0.000 A 
ATOM     26  C   UNL     1     -58.314 -42.477 -77.174  0.00  0.00    +0.000 A 
ENDBRANCH  20  21
ENDBRANCH  18  20
ENDBRANCH   2  18
TORSDOF 4
