REMARK VINA RESULT:    -5.968      3.536      6.361
REMARK INTER + INTRA:          -8.589
REMARK INTER:                  -7.486
REMARK INTRA:                  -1.103
REMARK UNBOUND:                -0.876
REMARK  Name = 
REMARK  6 active torsions:
REMARK  status: ('A' for Active; 'I' for Inactive)
REMARK    1  A    between atoms: C_1  and  C_2
REMARK    2  A    between atoms: C_4  and  C_5
REMARK    3  A    between atoms: C_5  and  S_6
REMARK    4  A    between atoms: S_6  and  C_8
REMARK    5  A    between atoms: C_20  and  C_21
REMARK    6  A    between atoms: C_21  and  C_23
REMARK                            x       y       z     vdW  Elec       q    Type
REMARK                         _______ _______ _______ _____ _____    ______ ____
ROOT
ATOM      1  C   UNL     1     -55.805 -42.942 -77.508  0.00  0.00    +0.000 A 
ATOM      2  N   UNL     1     -57.113 -43.329 -77.156  0.00  0.00    +0.000 N 
ATOM      3  C   UNL     1     -57.722 -42.829 -75.972  0.00  0.00    +0.000 A 
ATOM      4  C   UNL     1     -59.113 -42.847 -75.758  0.00  0.00    +0.000 A 
ATOM      5 BR   UNL     1     -60.308 -43.384 -77.129  0.00  0.00    +0.000 Br
ATOM      6  C   UNL     1     -59.663 -42.446 -74.532  0.00  0.00    +0.000 A 
ATOM      7  C   UNL     1     -58.820 -41.994 -73.510  0.00  0.00    +0.000 A 
ATOM      8  C   UNL     1     -57.438 -41.965 -73.700  0.00  0.00    +0.000 A 
ATOM      9 CL   UNL     1     -56.493 -41.323 -72.406  0.00  0.00    +0.000 Cl
ATOM     10  C   UNL     1     -56.898 -42.403 -74.919  0.00  0.00    +0.000 A 
ATOM     11  C   UNL     1     -55.448 -42.490 -75.180  0.00  0.00    +0.000 A 
ATOM     12  O   UNL     1     -54.644 -42.715 -74.285  0.00  0.00    +0.000 OA
ATOM     13  C   UNL     1     -54.982 -42.372 -76.601  0.00  0.00    +0.000 A 
ATOM     14  H   UNL     1     -57.744 -43.351 -77.969  0.00  0.00    +0.000 HD
ENDROOT
BRANCH   1  15
ATOM     15  S   UNL     1     -55.557 -42.876 -79.302  0.00  0.00    +0.000 S 
ATOM     16  O   UNL     1     -56.800 -42.207 -79.822  0.00  0.00    +0.000 OA
BRANCH  15  17
ATOM     17  C   UNL     1     -55.528 -44.565 -79.972  0.00  0.00    +0.000 C 
BRANCH  17  21
ATOM     18  C   UNL     1     -55.844 -48.638 -76.885  0.00  0.00    +0.000 C 
ATOM     19  C   UNL     1     -55.965 -47.456 -77.758  0.00  0.00    +0.000 A 
ATOM     20  C   UNL     1     -55.071 -46.613 -78.375  0.00  0.00    +0.000 A 
ATOM     21  C   UNL     1     -55.875 -45.742 -79.143  0.00  0.00    +0.000 A 
ATOM     22  N   UNL     1     -57.178 -46.004 -78.943  0.00  0.00    +0.000 NA
ATOM     23  O   UNL     1     -57.229 -47.077 -78.077  0.00  0.00    +0.000 OA
ENDBRANCH  17  21
ENDBRANCH  15  17
ENDBRANCH   1  15
BRANCH  13  24
ATOM     24  C   UNL     1     -53.785 -41.499 -76.768  0.00  0.00    +0.000 C 
ATOM     25  O   UNL     1     -53.865 -40.296 -76.590  0.00  0.00    +0.000 OA
BRANCH  24  26
ATOM     26  C   UNL     1     -52.491 -42.123 -77.106  0.00  0.00    +0.000 C 
ATOM     27  C   UNL     1     -51.246 -41.275 -77.142  0.00  0.00    +0.000 C 
ATOM     28  C   UNL     1     -51.801 -41.833 -78.417  0.00  0.00    +0.000 C 
ENDBRANCH  24  26
ENDBRANCH  13  24
TORSDOF 5
