REMARK VINA RESULT:    -6.856      0.000      0.000
REMARK INTER + INTRA:          -9.425
REMARK INTER:                  -8.460
REMARK INTRA:                  -0.965
REMARK UNBOUND:                -0.965
REMARK  Name = 
REMARK  6 active torsions:
REMARK  status: ('A' for Active; 'I' for Inactive)
REMARK    1  A    between atoms: C_1  and  C_2
REMARK    2  A    between atoms: C_2  and  C_4
REMARK    3  A    between atoms: C_5  and  S_6
REMARK    4  A    between atoms: S_6  and  C_8
REMARK    5  A    between atoms: C_8  and  C_9
REMARK    6  A    between atoms: C_11  and  C_12
REMARK                            x       y       z     vdW  Elec       q    Type
REMARK                         _______ _______ _______ _____ _____    ______ ____
ROOT
ATOM      1  C   UNL     1     -55.944 -42.471 -62.749  0.00  0.00    +0.000 A 
ATOM      2  C   UNL     1     -55.632 -41.302 -63.355  0.00  0.00    +0.000 A 
ATOM      3  N   UNL     1     -54.414 -41.060 -63.955  0.00  0.00    +0.000 N 
ATOM      4  C   UNL     1     -53.335 -41.956 -63.877  0.00  0.00    +0.000 A 
ATOM      5  C   UNL     1     -52.108 -41.658 -64.503  0.00  0.00    +0.000 A 
ATOM      6 BR   UNL     1     -51.849 -40.011 -65.415  0.00  0.00    +0.000 Br
ATOM      7  C   UNL     1     -51.049 -42.564 -64.474  0.00  0.00    +0.000 A 
ATOM      8  C   UNL     1     -51.206 -43.781 -63.821  0.00  0.00    +0.000 A 
ATOM      9  C   UNL     1     -52.422 -44.110 -63.213  0.00  0.00    +0.000 A 
ATOM     10 CL   UNL     1     -52.457 -45.653 -62.432  0.00  0.00    +0.000 Cl
ATOM     11  C   UNL     1     -53.503 -43.206 -63.259  0.00  0.00    +0.000 A 
ATOM     12  C   UNL     1     -54.837 -43.490 -62.664  0.00  0.00    +0.000 A 
ATOM     13  O   UNL     1     -55.023 -44.543 -62.065  0.00  0.00    +0.000 OA
ATOM     14  H   UNL     1     -54.162 -40.077 -64.066  0.00  0.00    +0.000 HD
ENDROOT
BRANCH   1  16
ATOM     15  C   UNL     1     -58.339 -43.459 -62.985  0.00  0.00    +0.000 C 
ATOM     16  C   UNL     1     -57.281 -42.790 -62.135  0.00  0.00    +0.000 C 
ATOM     17  O   UNL     1     -57.546 -42.502 -60.971  0.00  0.00    +0.000 OA
ENDBRANCH   1  16
BRANCH   2  18
ATOM     18  S   UNL     1     -56.764 -39.866 -63.288  0.00  0.00    +0.000 S 
ATOM     19  O   UNL     1     -56.481 -39.264 -61.938  0.00  0.00    +0.000 OA
BRANCH  18  20
ATOM     20  C   UNL     1     -55.939 -38.780 -64.507  0.00  0.00    +0.000 C 
BRANCH  20  21
ATOM     21  C   UNL     1     -55.270 -37.613 -63.860  0.00  0.00    +0.000 A 
ATOM     22  C   UNL     1     -55.801 -36.337 -63.534  0.00  0.00    +0.000 A 
ATOM     23  C   UNL     1     -54.780 -35.692 -62.882  0.00  0.00    +0.000 A 
ATOM     24  C   UNL     1     -54.623 -34.361 -62.263  0.00  0.00    +0.000 C 
ATOM     25  O   UNL     1     -53.704 -36.520 -62.813  0.00  0.00    +0.000 OA
ATOM     26  N   UNL     1     -54.008 -37.727 -63.419  0.00  0.00    +0.000 NA
ENDBRANCH  20  21
ENDBRANCH  18  20
ENDBRANCH   2  18
TORSDOF 4
