REMARK VINA RESULT:    -7.180     10.529     12.886
REMARK INTER + INTRA:         -10.148
REMARK INTER:                  -9.010
REMARK INTRA:                  -1.139
REMARK UNBOUND:                -0.870
REMARK  Name = 
REMARK  8 active torsions:
REMARK  status: ('A' for Active; 'I' for Inactive)
REMARK    1  A    between atoms: C_1  and  C_2
REMARK    2  A    between atoms: C_4  and  C_5
REMARK    3  A    between atoms: C_5  and  S_6
REMARK    4  A    between atoms: S_6  and  C_8
REMARK    5  A    between atoms: C_20  and  C_21
REMARK    6  A    between atoms: C_21  and  C_23
REMARK    7  A    between atoms: C_23  and  C_24
REMARK    8  A    between atoms: C_23  and  C_25
REMARK                            x       y       z     vdW  Elec       q    Type
REMARK                         _______ _______ _______ _____ _____    ______ ____
ROOT
ATOM      1  C   UNL     1     -55.511 -41.713 -62.872  0.00  0.00    +0.000 A 
ATOM      2  N   UNL     1     -54.858 -42.941 -62.823  0.00  0.00    +0.000 N 
ATOM      3  C   UNL     1     -53.499 -43.070 -63.172  0.00  0.00    +0.000 A 
ATOM      4  C   UNL     1     -52.717 -44.161 -62.748  0.00  0.00    +0.000 A 
ATOM      5 BR   UNL     1     -53.409 -45.446 -61.537  0.00  0.00    +0.000 Br
ATOM      6  C   UNL     1     -51.393 -44.305 -63.174  0.00  0.00    +0.000 A 
ATOM      7  C   UNL     1     -50.831 -43.358 -64.026  0.00  0.00    +0.000 A 
ATOM      8  C   UNL     1     -51.594 -42.257 -64.456  0.00  0.00    +0.000 A 
ATOM      9 CL   UNL     1     -50.767 -41.113 -65.451  0.00  0.00    +0.000 Cl
ATOM     10  C   UNL     1     -52.931 -42.115 -64.032  0.00  0.00    +0.000 A 
ATOM     11  C   UNL     1     -53.828 -41.009 -64.454  0.00  0.00    +0.000 A 
ATOM     12  O   UNL     1     -53.613 -40.409 -65.502  0.00  0.00    +0.000 OA
ATOM     13  C   UNL     1     -55.022 -40.660 -63.569  0.00  0.00    +0.000 A 
ATOM     14  H   UNL     1     -55.191 -43.561 -62.072  0.00  0.00    +0.000 HD
ENDROOT
BRANCH   1  15
ATOM     15  S   UNL     1     -56.942 -41.667 -61.729  0.00  0.00    +0.000 S 
ATOM     16  O   UNL     1     -56.381 -42.182 -60.431  0.00  0.00    +0.000 OA
BRANCH  15  17
ATOM     17  C   UNL     1     -58.067 -42.929 -62.414  0.00  0.00    +0.000 C 
BRANCH  17  21
ATOM     18  C   UNL     1     -58.904 -42.386 -67.494  0.00  0.00    +0.000 C 
ATOM     19  C   UNL     1     -58.528 -42.688 -66.095  0.00  0.00    +0.000 A 
ATOM     20  C   UNL     1     -58.817 -42.136 -64.868  0.00  0.00    +0.000 A 
ATOM     21  C   UNL     1     -58.137 -42.957 -63.923  0.00  0.00    +0.000 A 
ATOM     22  N   UNL     1     -57.465 -43.929 -64.564  0.00  0.00    +0.000 NA
ATOM     23  O   UNL     1     -57.715 -43.759 -65.913  0.00  0.00    +0.000 OA
ENDBRANCH  17  21
ENDBRANCH  15  17
ENDBRANCH   1  15
BRANCH  13  24
ATOM     24  C   UNL     1     -55.460 -39.213 -63.560  0.00  0.00    +0.000 C 
ATOM     25  O   UNL     1     -56.591 -38.906 -63.937  0.00  0.00    +0.000 OA
BRANCH  24  26
ATOM     26  C   UNL     1     -54.483 -38.112 -63.146  0.00  0.00    +0.000 C 
ATOM     27  C   UNL     1     -54.454 -36.970 -64.159  0.00  0.00    +0.000 C 
ATOM     28  C   UNL     1     -54.790 -37.572 -61.746  0.00  0.00    +0.000 C 
ENDBRANCH  24  26
ENDBRANCH  13  24
TORSDOF 5
