REMARK VINA RESULT:    -6.295     11.415     14.329
REMARK INTER + INTRA:          -9.482
REMARK INTER:                  -8.748
REMARK INTRA:                  -0.734
REMARK UNBOUND:                -1.347
REMARK  Name = 
REMARK  6 active torsions:
REMARK  status: ('A' for Active; 'I' for Inactive)
REMARK    1  A    between atoms: C_1  and  C_2
REMARK    2  A    between atoms: C_2  and  C_4
REMARK    3  A    between atoms: C_5  and  S_6
REMARK    4  A    between atoms: S_6  and  C_8
REMARK    5  A    between atoms: C_8  and  C_9
REMARK    6  A    between atoms: C_13  and  C_14
REMARK                            x       y       z     vdW  Elec       q    Type
REMARK                         _______ _______ _______ _____ _____    ______ ____
ROOT
ATOM      1  C   UNL     1     -53.727 -41.479 -77.912  0.00  0.00    +0.000 A 
ATOM      2  C   UNL     1     -55.054 -41.267 -78.077  0.00  0.00    +0.000 A 
ATOM      3  N   UNL     1     -55.696 -41.416 -79.293  0.00  0.00    +0.000 N 
ATOM      4  C   UNL     1     -55.009 -41.668 -80.495  0.00  0.00    +0.000 A 
ATOM      5  C   UNL     1     -55.700 -41.811 -81.711  0.00  0.00    +0.000 A 
ATOM      6 BR   UNL     1     -57.584 -41.582 -81.798  0.00  0.00    +0.000 Br
ATOM      7  C   UNL     1     -55.026 -42.126 -82.892  0.00  0.00    +0.000 A 
ATOM      8  C   UNL     1     -53.647 -42.306 -82.871  0.00  0.00    +0.000 A 
ATOM      9  C   UNL     1     -52.937 -42.187 -81.673  0.00  0.00    +0.000 A 
ATOM     10 CL   UNL     1     -51.227 -42.426 -81.809  0.00  0.00    +0.000 Cl
ATOM     11  C   UNL     1     -53.620 -41.892 -80.475  0.00  0.00    +0.000 A 
ATOM     12  C   UNL     1     -52.941 -41.790 -79.157  0.00  0.00    +0.000 A 
ATOM     13  O   UNL     1     -51.726 -41.930 -79.089  0.00  0.00    +0.000 OA
ATOM     14  H   UNL     1     -56.592 -40.935 -79.386  0.00  0.00    +0.000 HD
ENDROOT
BRANCH   1  16
ATOM     15  C   UNL     1     -53.027 -42.621 -75.683  0.00  0.00    +0.000 C 
ATOM     16  C   UNL     1     -53.000 -41.409 -76.592  0.00  0.00    +0.000 C 
ATOM     17  O   UNL     1     -52.418 -40.393 -76.219  0.00  0.00    +0.000 OA
ENDBRANCH   1  16
BRANCH   2  18
ATOM     18  S   UNL     1     -56.071 -40.584 -76.719  0.00  0.00    +0.000 S 
ATOM     19  O   UNL     1     -57.268 -40.015 -77.432  0.00  0.00    +0.000 OA
BRANCH  18  20
ATOM     20  C   UNL     1     -56.646 -42.130 -75.920  0.00  0.00    +0.000 C 
BRANCH  20  21
ATOM     21  C   UNL     1     -57.380 -41.884 -74.609  0.00  0.00    +0.000 A 
ATOM     22  C   UNL     1     -56.737 -41.238 -73.543  0.00  0.00    +0.000 A 
ATOM     23  C   UNL     1     -57.405 -41.020 -72.332  0.00  0.00    +0.000 A 
ATOM     24  C   UNL     1     -58.720 -41.451 -72.163  0.00  0.00    +0.000 A 
ATOM     25  C   UNL     1     -59.373 -42.112 -73.200  0.00  0.00    +0.000 A 
ATOM     26  C   UNL     1     -58.702 -42.334 -74.419  0.00  0.00    +0.000 A 
BRANCH  25  27
ATOM     27  C   UNL     1     -60.723 -42.576 -73.025  0.00  0.00    +0.000 C 
ATOM     28  N   UNL     1     -61.810 -42.966 -72.870  0.00  0.00    +0.000 NA
ENDBRANCH  25  27
ENDBRANCH  20  21
ENDBRANCH  18  20
ENDBRANCH   2  18
TORSDOF 5
