REMARK VINA RESULT:    -4.777     23.725     24.637
REMARK INTER + INTRA:          -6.630
REMARK INTER:                  -5.650
REMARK INTRA:                  -0.980
REMARK UNBOUND:                -0.736
REMARK  Name = 
REMARK  6 active torsions:
REMARK  status: ('A' for Active; 'I' for Inactive)
REMARK    1  A    between atoms: C_1  and  C_2
REMARK    2  A    between atoms: C_2  and  C_4
REMARK    3  A    between atoms: C_5  and  S_6
REMARK    4  A    between atoms: S_6  and  C_8
REMARK    5  A    between atoms: C_8  and  C_9
REMARK    6  A    between atoms: C_11  and  C_12
REMARK                            x       y       z     vdW  Elec       q    Type
REMARK                         _______ _______ _______ _____ _____    ______ ____
ROOT
ATOM      1  C   UNL     1     -65.870 -23.702 -64.807  0.00  0.00    +0.000 A 
ATOM      2  C   UNL     1     -67.108 -24.241 -64.765  0.00  0.00    +0.000 A 
ATOM      3  N   UNL     1     -67.867 -24.478 -65.899  0.00  0.00    +0.000 N 
ATOM      4  C   UNL     1     -67.529 -23.920 -67.144  0.00  0.00    +0.000 A 
ATOM      5  C   UNL     1     -68.424 -23.968 -68.228  0.00  0.00    +0.000 A 
ATOM      6 BR   UNL     1     -70.153 -24.727 -68.031  0.00  0.00    +0.000 Br
ATOM      7  C   UNL     1     -68.071 -23.443 -69.468  0.00  0.00    +0.000 A 
ATOM      8  C   UNL     1     -66.813 -22.868 -69.640  0.00  0.00    +0.000 A 
ATOM      9  C   UNL     1     -65.896 -22.836 -68.582  0.00  0.00    +0.000 A 
ATOM     10 CL   UNL     1     -64.398 -22.037 -68.900  0.00  0.00    +0.000 Cl
ATOM     11  C   UNL     1     -66.242 -23.389 -67.339  0.00  0.00    +0.000 A 
ATOM     12  C   UNL     1     -65.310 -23.471 -66.183  0.00  0.00    +0.000 A 
ATOM     13  O   UNL     1     -64.098 -23.400 -66.346  0.00  0.00    +0.000 OA
ATOM     14  H   UNL     1     -68.874 -24.519 -65.722  0.00  0.00    +0.000 HD
ENDROOT
BRANCH   1  16
ATOM     15  C   UNL     1     -64.085 -24.366 -63.026  0.00  0.00    +0.000 C 
ATOM     16  C   UNL     1     -65.038 -23.339 -63.609  0.00  0.00    +0.000 C 
ATOM     17  O   UNL     1     -65.120 -22.226 -63.095  0.00  0.00    +0.000 OA
ENDBRANCH   1  16
BRANCH   2  18
ATOM     18  S   UNL     1     -67.962 -24.577 -63.189  0.00  0.00    +0.000 S 
ATOM     19  O   UNL     1     -69.409 -24.662 -63.592  0.00  0.00    +0.000 OA
BRANCH  18  20
ATOM     20  C   UNL     1     -67.388 -26.305 -62.956  0.00  0.00    +0.000 C 
BRANCH  20  21
ATOM     21  C   UNL     1     -68.186 -27.331 -63.694  0.00  0.00    +0.000 A 
ATOM     22  C   UNL     1     -69.312 -28.097 -63.293  0.00  0.00    +0.000 A 
ATOM     23  C   UNL     1     -69.683 -28.790 -64.421  0.00  0.00    +0.000 A 
ATOM     24  C   UNL     1     -70.755 -29.750 -64.746  0.00  0.00    +0.000 C 
ATOM     25  O   UNL     1     -68.842 -28.464 -65.437  0.00  0.00    +0.000 OA
ATOM     26  N   UNL     1     -67.908 -27.550 -64.990  0.00  0.00    +0.000 NA
ENDBRANCH  20  21
ENDBRANCH  18  20
ENDBRANCH   2  18
TORSDOF 4
