REMARK VINA RESULT:    -5.662      3.736      4.233
REMARK INTER + INTRA:          -7.828
REMARK INTER:                  -6.835
REMARK INTRA:                  -0.993
REMARK UNBOUND:                -0.841
REMARK  Name = 
REMARK  6 active torsions:
REMARK  status: ('A' for Active; 'I' for Inactive)
REMARK    1  A    between atoms: C_1  and  C_2
REMARK    2  A    between atoms: C_2  and  C_4
REMARK    3  A    between atoms: C_5  and  S_6
REMARK    4  A    between atoms: S_6  and  C_8
REMARK    5  A    between atoms: C_8  and  C_9
REMARK    6  A    between atoms: C_11  and  C_12
REMARK                            x       y       z     vdW  Elec       q    Type
REMARK                         _______ _______ _______ _____ _____    ______ ____
ROOT
ATOM      1  C   UNL     1     -59.054 -38.258 -61.829  0.00  0.00    +0.000 A 
ATOM      2  C   UNL     1     -58.201 -39.229 -62.226  0.00  0.00    +0.000 A 
ATOM      3  N   UNL     1     -56.930 -38.981 -62.704  0.00  0.00    +0.000 N 
ATOM      4  C   UNL     1     -56.455 -37.685 -62.961  0.00  0.00    +0.000 A 
ATOM      5  C   UNL     1     -55.164 -37.485 -63.490  0.00  0.00    +0.000 A 
ATOM      6 BR   UNL     1     -54.053 -38.958 -63.938  0.00  0.00    +0.000 Br
ATOM      7  C   UNL     1     -54.667 -36.203 -63.701  0.00  0.00    +0.000 A 
ATOM      8  C   UNL     1     -55.452 -35.099 -63.375  0.00  0.00    +0.000 A 
ATOM      9  C   UNL     1     -56.729 -35.273 -62.825  0.00  0.00    +0.000 A 
ATOM     10 CL   UNL     1     -57.584 -33.809 -62.485  0.00  0.00    +0.000 Cl
ATOM     11  C   UNL     1     -57.228 -36.571 -62.597  0.00  0.00    +0.000 A 
ATOM     12  C   UNL     1     -58.573 -36.841 -62.006  0.00  0.00    +0.000 A 
ATOM     13  O   UNL     1     -59.306 -35.908 -61.702  0.00  0.00    +0.000 OA
ATOM     14  H   UNL     1     -56.533 -39.716 -63.293  0.00  0.00    +0.000 HD
ENDROOT
BRANCH   1  16
ATOM     15  C   UNL     1     -60.602 -38.732 -59.787  0.00  0.00    +0.000 C 
ATOM     16  C   UNL     1     -60.433 -38.509 -61.275  0.00  0.00    +0.000 C 
ATOM     17  O   UNL     1     -61.425 -38.538 -61.998  0.00  0.00    +0.000 OA
ENDBRANCH   1  16
BRANCH   2  18
ATOM     18  S   UNL     1     -58.724 -40.974 -62.315  0.00  0.00    +0.000 S 
ATOM     19  O   UNL     1     -59.618 -41.008 -63.526  0.00  0.00    +0.000 OA
BRANCH  18  20
ATOM     20  C   UNL     1     -57.142 -41.729 -62.834  0.00  0.00    +0.000 C 
BRANCH  20  21
ATOM     21  C   UNL     1     -57.090 -41.986 -64.305  0.00  0.00    +0.000 A 
ATOM     22  C   UNL     1     -57.337 -43.179 -65.034  0.00  0.00    +0.000 A 
ATOM     23  C   UNL     1     -57.144 -42.828 -66.348  0.00  0.00    +0.000 A 
ATOM     24  C   UNL     1     -57.174 -43.558 -67.628  0.00  0.00    +0.000 C 
ATOM     25  O   UNL     1     -56.852 -41.503 -66.415  0.00  0.00    +0.000 OA
ATOM     26  N   UNL     1     -56.824 -40.969 -65.139  0.00  0.00    +0.000 NA
ENDBRANCH  20  21
ENDBRANCH  18  20
ENDBRANCH   2  18
TORSDOF 4
