REMARK VINA RESULT:    -5.754     12.630     15.067
REMARK INTER + INTRA:          -8.376
REMARK INTER:                  -7.582
REMARK INTRA:                  -0.794
REMARK UNBOUND:                -0.940
REMARK  Name = 
REMARK  6 active torsions:
REMARK  status: ('A' for Active; 'I' for Inactive)
REMARK    1  A    between atoms: C_1  and  C_2
REMARK    2  A    between atoms: C_4  and  C_5
REMARK    3  A    between atoms: C_5  and  S_6
REMARK    4  A    between atoms: S_6  and  C_8
REMARK    5  A    between atoms: C_20  and  C_21
REMARK    6  A    between atoms: C_21  and  C_23
REMARK                            x       y       z     vdW  Elec       q    Type
REMARK                         _______ _______ _______ _____ _____    ______ ____
ROOT
ATOM      1  C   UNL     1     -56.315 -43.337 -78.318  0.00  0.00    +0.000 A 
ATOM      2  N   UNL     1     -56.419 -42.726 -79.583  0.00  0.00    +0.000 N 
ATOM      3  C   UNL     1     -55.575 -41.636 -79.931  0.00  0.00    +0.000 A 
ATOM      4  C   UNL     1     -55.344 -41.239 -81.262  0.00  0.00    +0.000 A 
ATOM      5 BR   UNL     1     -56.011 -42.257 -82.717  0.00  0.00    +0.000 Br
ATOM      6  C   UNL     1     -54.594 -40.092 -81.556  0.00  0.00    +0.000 A 
ATOM      7  C   UNL     1     -54.040 -39.341 -80.514  0.00  0.00    +0.000 A 
ATOM      8  C   UNL     1     -54.253 -39.716 -79.187  0.00  0.00    +0.000 A 
ATOM      9 CL   UNL     1     -53.467 -38.766 -77.979  0.00  0.00    +0.000 Cl
ATOM     10  C   UNL     1     -55.036 -40.846 -78.904  0.00  0.00    +0.000 A 
ATOM     11  C   UNL     1     -55.387 -41.269 -77.535  0.00  0.00    +0.000 A 
ATOM     12  O   UNL     1     -55.509 -40.463 -76.622  0.00  0.00    +0.000 OA
ATOM     13  C   UNL     1     -55.672 -42.723 -77.300  0.00  0.00    +0.000 A 
ATOM     14  H   UNL     1     -56.541 -43.415 -80.338  0.00  0.00    +0.000 HD
ENDROOT
BRANCH   1  15
ATOM     15  S   UNL     1     -56.707 -45.106 -78.364  0.00  0.00    +0.000 S 
ATOM     16  O   UNL     1     -56.138 -45.576 -79.675  0.00  0.00    +0.000 OA
BRANCH  15  17
ATOM     17  C   UNL     1     -58.508 -45.326 -78.442  0.00  0.00    +0.000 C 
BRANCH  17  21
ATOM     18  C   UNL     1     -59.887 -50.140 -77.373  0.00  0.00    +0.000 C 
ATOM     19  C   UNL     1     -59.685 -48.700 -77.614  0.00  0.00    +0.000 A 
ATOM     20  C   UNL     1     -58.619 -47.925 -78.008  0.00  0.00    +0.000 A 
ATOM     21  C   UNL     1     -59.153 -46.623 -78.129  0.00  0.00    +0.000 A 
ATOM     22  N   UNL     1     -60.445 -46.606 -77.761  0.00  0.00    +0.000 NA
ATOM     23  O   UNL     1     -60.773 -47.908 -77.441  0.00  0.00    +0.000 OA
ENDBRANCH  17  21
ENDBRANCH  15  17
ENDBRANCH   1  15
BRANCH  13  24
ATOM     24  C   UNL     1     -55.042 -43.265 -76.062  0.00  0.00    +0.000 C 
ATOM     25  O   UNL     1     -55.711 -43.465 -75.063  0.00  0.00    +0.000 OA
BRANCH  24  26
ATOM     26  C   UNL     1     -53.605 -43.599 -76.083  0.00  0.00    +0.000 C 
ATOM     27  C   UNL     1     -52.883 -43.850 -74.784  0.00  0.00    +0.000 C 
ATOM     28  C   UNL     1     -52.567 -42.623 -75.584  0.00  0.00    +0.000 C 
ENDBRANCH  24  26
ENDBRANCH  13  24
TORSDOF 5
