REMARK VINA RESULT:    -7.179      0.000      0.000
REMARK INTER + INTRA:         -10.275
REMARK INTER:                  -9.278
REMARK INTRA:                  -0.998
REMARK UNBOUND:                -0.998
REMARK  Name = 
REMARK  6 active torsions:
REMARK  status: ('A' for Active; 'I' for Inactive)
REMARK    1  A    between atoms: C_1  and  C_2
REMARK    2  A    between atoms: C_4  and  C_5
REMARK    3  A    between atoms: C_5  and  S_6
REMARK    4  A    between atoms: S_6  and  C_8
REMARK    5  A    between atoms: C_20  and  C_21
REMARK    6  A    between atoms: C_21  and  C_23
REMARK                            x       y       z     vdW  Elec       q    Type
REMARK                         _______ _______ _______ _____ _____    ______ ____
ROOT
ATOM      1  C   UNL     1     -55.550 -41.896 -63.173  0.00  0.00    +0.000 A 
ATOM      2  N   UNL     1     -54.773 -43.070 -63.144  0.00  0.00    +0.000 N 
ATOM      3  C   UNL     1     -53.382 -43.024 -63.439  0.00  0.00    +0.000 A 
ATOM      4  C   UNL     1     -52.484 -44.040 -63.061  0.00  0.00    +0.000 A 
ATOM      5 BR   UNL     1     -53.041 -45.480 -61.959  0.00  0.00    +0.000 Br
ATOM      6  C   UNL     1     -51.142 -44.009 -63.467  0.00  0.00    +0.000 A 
ATOM      7  C   UNL     1     -50.677 -42.938 -64.238  0.00  0.00    +0.000 A 
ATOM      8  C   UNL     1     -51.548 -41.919 -64.623  0.00  0.00    +0.000 A 
ATOM      9 CL   UNL     1     -50.860 -40.607 -65.511  0.00  0.00    +0.000 Cl
ATOM     10  C   UNL     1     -52.897 -41.979 -64.241  0.00  0.00    +0.000 A 
ATOM     11  C   UNL     1     -53.908 -40.995 -64.671  0.00  0.00    +0.000 A 
ATOM     12  O   UNL     1     -53.826 -40.413 -65.745  0.00  0.00    +0.000 OA
ATOM     13  C   UNL     1     -55.100 -40.779 -63.786  0.00  0.00    +0.000 A 
ATOM     14  H   UNL     1     -55.007 -43.673 -62.344  0.00  0.00    +0.000 HD
ENDROOT
BRANCH   1  15
ATOM     15  S   UNL     1     -56.907 -41.930 -61.973  0.00  0.00    +0.000 S 
ATOM     16  O   UNL     1     -56.515 -43.010 -61.002  0.00  0.00    +0.000 OA
BRANCH  15  17
ATOM     17  C   UNL     1     -58.433 -42.470 -62.798  0.00  0.00    +0.000 C 
BRANCH  17  21
ATOM     18  C   UNL     1     -58.971 -42.603 -67.889  0.00  0.00    +0.000 C 
ATOM     19  C   UNL     1     -58.682 -42.728 -66.448  0.00  0.00    +0.000 A 
ATOM     20  C   UNL     1     -59.026 -42.011 -65.327  0.00  0.00    +0.000 A 
ATOM     21  C   UNL     1     -58.480 -42.748 -64.252  0.00  0.00    +0.000 A 
ATOM     22  N   UNL     1     -57.789 -43.807 -64.710  0.00  0.00    +0.000 NA
ATOM     23  O   UNL     1     -57.920 -43.790 -66.083  0.00  0.00    +0.000 OA
ENDBRANCH  17  21
ENDBRANCH  15  17
ENDBRANCH   1  15
BRANCH  13  24
ATOM     24  C   UNL     1     -55.462 -39.343 -63.609  0.00  0.00    +0.000 C 
ATOM     25  O   UNL     1     -56.596 -38.958 -63.836  0.00  0.00    +0.000 OA
BRANCH  24  26
ATOM     26  C   UNL     1     -54.437 -38.407 -63.110  0.00  0.00    +0.000 C 
ATOM     27  C   UNL     1     -54.758 -36.937 -63.020  0.00  0.00    +0.000 C 
ATOM     28  C   UNL     1     -53.764 -37.419 -64.033  0.00  0.00    +0.000 C 
ENDBRANCH  24  26
ENDBRANCH  13  24
TORSDOF 5
