REMARK VINA RESULT:    -6.178     13.496     14.634
REMARK INTER + INTRA:          -8.587
REMARK INTER:                  -8.048
REMARK INTRA:                  -0.540
REMARK UNBOUND:                -0.965
REMARK  Name = 
REMARK  6 active torsions:
REMARK  status: ('A' for Active; 'I' for Inactive)
REMARK    1  A    between atoms: C_1  and  C_2
REMARK    2  A    between atoms: C_2  and  C_4
REMARK    3  A    between atoms: C_5  and  S_6
REMARK    4  A    between atoms: S_6  and  C_8
REMARK    5  A    between atoms: C_8  and  C_9
REMARK    6  A    between atoms: C_11  and  C_12
REMARK                            x       y       z     vdW  Elec       q    Type
REMARK                         _______ _______ _______ _____ _____    ______ ____
ROOT
ATOM      1  C   UNL     1     -54.145 -40.988 -78.361  0.00  0.00    +0.000 A 
ATOM      2  C   UNL     1     -55.040 -42.004 -78.347  0.00  0.00    +0.000 A 
ATOM      3  N   UNL     1     -54.979 -43.057 -77.459  0.00  0.00    +0.000 N 
ATOM      4  C   UNL     1     -53.906 -43.244 -76.571  0.00  0.00    +0.000 A 
ATOM      5  C   UNL     1     -53.889 -44.341 -75.687  0.00  0.00    +0.000 A 
ATOM      6 BR   UNL     1     -55.278 -45.638 -75.711  0.00  0.00    +0.000 Br
ATOM      7  C   UNL     1     -52.854 -44.507 -74.768  0.00  0.00    +0.000 A 
ATOM      8  C   UNL     1     -51.825 -43.573 -74.720  0.00  0.00    +0.000 A 
ATOM      9  C   UNL     1     -51.832 -42.462 -75.571  0.00  0.00    +0.000 A 
ATOM     10 CL   UNL     1     -50.479 -41.399 -75.398  0.00  0.00    +0.000 Cl
ATOM     11  C   UNL     1     -52.889 -42.280 -76.486  0.00  0.00    +0.000 A 
ATOM     12  C   UNL     1     -52.987 -41.112 -77.404  0.00  0.00    +0.000 A 
ATOM     13  O   UNL     1     -52.099 -40.268 -77.411  0.00  0.00    +0.000 OA
ATOM     14  H   UNL     1     -55.467 -43.907 -77.746  0.00  0.00    +0.000 HD
ENDROOT
BRANCH   1  16
ATOM     15  C   UNL     1     -54.015 -39.997 -80.763  0.00  0.00    +0.000 C 
ATOM     16  C   UNL     1     -54.213 -39.795 -79.276  0.00  0.00    +0.000 C 
ATOM     17  O   UNL     1     -54.400 -38.659 -78.849  0.00  0.00    +0.000 OA
ENDBRANCH   1  16
BRANCH   2  18
ATOM     18  S   UNL     1     -56.335 -42.146 -79.633  0.00  0.00    +0.000 S 
ATOM     19  O   UNL     1     -56.810 -43.566 -79.491  0.00  0.00    +0.000 OA
BRANCH  18  20
ATOM     20  C   UNL     1     -57.627 -41.102 -78.868  0.00  0.00    +0.000 C 
BRANCH  20  21
ATOM     21  C   UNL     1     -57.674 -41.260 -77.384  0.00  0.00    +0.000 A 
ATOM     22  C   UNL     1     -57.434 -40.297 -76.369  0.00  0.00    +0.000 A 
ATOM     23  C   UNL     1     -57.698 -40.958 -75.194  0.00  0.00    +0.000 A 
ATOM     24  C   UNL     1     -57.668 -40.585 -73.766  0.00  0.00    +0.000 C 
ATOM     25  O   UNL     1     -58.077 -42.232 -75.477  0.00  0.00    +0.000 OA
ATOM     26  N   UNL     1     -58.069 -42.424 -76.848  0.00  0.00    +0.000 NA
ENDBRANCH  20  21
ENDBRANCH  18  20
ENDBRANCH   2  18
TORSDOF 4
