REMARK VINA RESULT:    -6.285      4.070      6.658
REMARK INTER + INTRA:          -9.030
REMARK INTER:                  -7.667
REMARK INTRA:                  -1.363
REMARK UNBOUND:                -0.908
REMARK  Name = 
REMARK  6 active torsions:
REMARK  status: ('A' for Active; 'I' for Inactive)
REMARK    1  A    between atoms: C_1  and  C_2
REMARK    2  A    between atoms: C_4  and  C_5
REMARK    3  A    between atoms: C_5  and  S_6
REMARK    4  A    between atoms: S_6  and  C_8
REMARK    5  A    between atoms: C_20  and  C_21
REMARK    6  A    between atoms: C_21  and  C_23
REMARK                            x       y       z     vdW  Elec       q    Type
REMARK                         _______ _______ _______ _____ _____    ______ ____
ROOT
ATOM      1  C   UNL     1     -55.384 -42.802 -78.874  0.00  0.00    +0.000 A 
ATOM      2  N   UNL     1     -55.326 -44.208 -78.920  0.00  0.00    +0.000 N 
ATOM      3  C   UNL     1     -54.952 -44.954 -77.769  0.00  0.00    +0.000 A 
ATOM      4  C   UNL     1     -55.241 -46.323 -77.614  0.00  0.00    +0.000 A 
ATOM      5 BR   UNL     1     -56.324 -47.244 -78.871  0.00  0.00    +0.000 Br
ATOM      6  C   UNL     1     -54.759 -47.046 -76.514  0.00  0.00    +0.000 A 
ATOM      7  C   UNL     1     -54.000 -46.394 -75.536  0.00  0.00    +0.000 A 
ATOM      8  C   UNL     1     -53.702 -45.037 -75.666  0.00  0.00    +0.000 A 
ATOM      9 CL   UNL     1     -52.821 -44.310 -74.371  0.00  0.00    +0.000 Cl
ATOM     10  C   UNL     1     -54.160 -44.333 -76.790  0.00  0.00    +0.000 A 
ATOM     11  C   UNL     1     -53.825 -42.921 -77.057  0.00  0.00    +0.000 A 
ATOM     12  O   UNL     1     -52.768 -42.428 -76.682  0.00  0.00    +0.000 OA
ATOM     13  C   UNL     1     -54.785 -42.113 -77.878  0.00  0.00    +0.000 A 
ATOM     14  H   UNL     1     -56.118 -44.614 -79.438  0.00  0.00    +0.000 HD
ENDROOT
BRANCH   1  15
ATOM     15  S   UNL     1     -56.660 -42.121 -79.967  0.00  0.00    +0.000 S 
ATOM     16  O   UNL     1     -57.755 -43.153 -79.943  0.00  0.00    +0.000 OA
BRANCH  15  17
ATOM     17  C   UNL     1     -56.023 -42.044 -81.667  0.00  0.00    +0.000 C 
BRANCH  17  21
ATOM     18  C   UNL     1     -51.003 -42.295 -82.644  0.00  0.00    +0.000 C 
ATOM     19  C   UNL     1     -52.441 -42.435 -82.345  0.00  0.00    +0.000 A 
ATOM     20  C   UNL     1     -53.473 -41.554 -82.128  0.00  0.00    +0.000 A 
ATOM     21  C   UNL     1     -54.616 -42.372 -81.992  0.00  0.00    +0.000 A 
ATOM     22  N   UNL     1     -54.276 -43.672 -82.054  0.00  0.00    +0.000 NA
ATOM     23  O   UNL     1     -52.915 -43.705 -82.276  0.00  0.00    +0.000 OA
ENDBRANCH  17  21
ENDBRANCH  15  17
ENDBRANCH   1  15
BRANCH  13  24
ATOM     24  C   UNL     1     -55.032 -40.746 -77.337  0.00  0.00    +0.000 C 
ATOM     25  O   UNL     1     -55.637 -40.593 -76.290  0.00  0.00    +0.000 OA
BRANCH  24  26
ATOM     26  C   UNL     1     -54.491 -39.584 -78.067  0.00  0.00    +0.000 C 
ATOM     27  C   UNL     1     -53.287 -39.762 -78.957  0.00  0.00    +0.000 C 
ATOM     28  C   UNL     1     -53.162 -38.972 -77.690  0.00  0.00    +0.000 C 
ENDBRANCH  24  26
ENDBRANCH  13  24
TORSDOF 5
