REMARK VINA RESULT:    -7.431      8.597     12.609
REMARK INTER + INTRA:         -10.514
REMARK INTER:                  -9.606
REMARK INTRA:                  -0.908
REMARK UNBOUND:                -0.910
REMARK  Name = 
REMARK  6 active torsions:
REMARK  status: ('A' for Active; 'I' for Inactive)
REMARK    1  A    between atoms: C_1  and  C_2
REMARK    2  A    between atoms: C_4  and  C_5
REMARK    3  A    between atoms: C_5  and  S_6
REMARK    4  A    between atoms: S_6  and  C_8
REMARK    5  A    between atoms: C_20  and  C_21
REMARK    6  A    between atoms: C_21  and  C_23
REMARK                            x       y       z     vdW  Elec       q    Type
REMARK                         _______ _______ _______ _____ _____    ______ ____
ROOT
ATOM      1  C   UNL     1     -55.653 -42.799 -76.637  0.00  0.00    +0.000 A 
ATOM      2  N   UNL     1     -54.331 -43.175 -76.330  0.00  0.00    +0.000 N 
ATOM      3  C   UNL     1     -53.312 -42.193 -76.196  0.00  0.00    +0.000 A 
ATOM      4  C   UNL     1     -52.098 -42.432 -75.527  0.00  0.00    +0.000 A 
ATOM      5 BR   UNL     1     -51.802 -44.052 -74.585  0.00  0.00    +0.000 Br
ATOM      6  C   UNL     1     -51.075 -41.473 -75.513  0.00  0.00    +0.000 A 
ATOM      7  C   UNL     1     -51.271 -40.243 -76.152  0.00  0.00    +0.000 A 
ATOM      8  C   UNL     1     -52.468 -39.982 -76.821  0.00  0.00    +0.000 A 
ATOM      9 CL   UNL     1     -52.639 -38.410 -77.514  0.00  0.00    +0.000 Cl
ATOM     10  C   UNL     1     -53.469 -40.964 -76.857  0.00  0.00    +0.000 A 
ATOM     11  C   UNL     1     -54.729 -40.812 -77.610  0.00  0.00    +0.000 A 
ATOM     12  O   UNL     1     -54.793 -40.142 -78.633  0.00  0.00    +0.000 OA
ATOM     13  C   UNL     1     -55.930 -41.572 -77.131  0.00  0.00    +0.000 A 
ATOM     14  H   UNL     1     -54.293 -43.912 -75.612  0.00  0.00    +0.000 HD
ENDROOT
BRANCH   1  15
ATOM     15  S   UNL     1     -56.882 -43.907 -75.897  0.00  0.00    +0.000 S 
ATOM     16  O   UNL     1     -57.657 -44.436 -77.073  0.00  0.00    +0.000 OA
BRANCH  15  17
ATOM     17  C   UNL     1     -58.033 -42.941 -74.876  0.00  0.00    +0.000 C 
BRANCH  17  21
ATOM     18  C   UNL     1     -55.767 -41.060 -70.688  0.00  0.00    +0.000 C 
ATOM     19  C   UNL     1     -56.593 -41.496 -71.829  0.00  0.00    +0.000 A 
ATOM     20  C   UNL     1     -56.354 -42.215 -72.977  0.00  0.00    +0.000 A 
ATOM     21  C   UNL     1     -57.623 -42.346 -73.584  0.00  0.00    +0.000 A 
ATOM     22  N   UNL     1     -58.555 -41.682 -72.877  0.00  0.00    +0.000 NA
ATOM     23  O   UNL     1     -57.905 -41.154 -71.781  0.00  0.00    +0.000 OA
ENDBRANCH  17  21
ENDBRANCH  15  17
ENDBRANCH   1  15
BRANCH  13  24
ATOM     24  C   UNL     1     -57.186 -40.769 -77.129  0.00  0.00    +0.000 C 
ATOM     25  O   UNL     1     -57.392 -39.944 -76.256  0.00  0.00    +0.000 OA
BRANCH  24  26
ATOM     26  C   UNL     1     -58.152 -40.957 -78.228  0.00  0.00    +0.000 C 
ATOM     27  C   UNL     1     -59.462 -40.212 -78.198  0.00  0.00    +0.000 C 
ATOM     28  C   UNL     1     -59.450 -41.699 -78.012  0.00  0.00    +0.000 C 
ENDBRANCH  24  26
ENDBRANCH  13  24
TORSDOF 5
