REMARK VINA RESULT:    -7.345      8.517     12.588
REMARK INTER + INTRA:         -10.414
REMARK INTER:                 -10.021
REMARK INTRA:                  -0.393
REMARK UNBOUND:                -0.922
REMARK  Name = 
REMARK  6 active torsions:
REMARK  status: ('A' for Active; 'I' for Inactive)
REMARK    1  A    between atoms: C_1  and  C_2
REMARK    2  A    between atoms: C_4  and  C_5
REMARK    3  A    between atoms: C_5  and  S_6
REMARK    4  A    between atoms: S_6  and  C_8
REMARK    5  A    between atoms: C_20  and  C_21
REMARK    6  A    between atoms: C_21  and  C_23
REMARK                            x       y       z     vdW  Elec       q    Type
REMARK                         _______ _______ _______ _____ _____    ______ ____
ROOT
ATOM      1  C   UNL     1     -55.700 -41.526 -63.671  0.00  0.00    +0.000 A 
ATOM      2  N   UNL     1     -54.360 -41.144 -63.878  0.00  0.00    +0.000 N 
ATOM      3  C   UNL     1     -53.324 -42.118 -63.893  0.00  0.00    +0.000 A 
ATOM      4  C   UNL     1     -52.060 -41.885 -64.465  0.00  0.00    +0.000 A 
ATOM      5 BR   UNL     1     -51.700 -40.292 -65.430  0.00  0.00    +0.000 Br
ATOM      6  C   UNL     1     -51.031 -42.832 -64.361  0.00  0.00    +0.000 A 
ATOM      7  C   UNL     1     -51.270 -44.044 -63.702  0.00  0.00    +0.000 A 
ATOM      8  C   UNL     1     -52.516 -44.298 -63.128  0.00  0.00    +0.000 A 
ATOM      9 CL   UNL     1     -52.731 -45.849 -62.401  0.00  0.00    +0.000 Cl
ATOM     10  C   UNL     1     -53.526 -43.327 -63.208  0.00  0.00    +0.000 A 
ATOM     11  C   UNL     1     -54.844 -43.470 -62.560  0.00  0.00    +0.000 A 
ATOM     12  O   UNL     1     -54.987 -44.109 -61.525  0.00  0.00    +0.000 OA
ATOM     13  C   UNL     1     -56.007 -42.740 -63.163  0.00  0.00    +0.000 A 
ATOM     14  H   UNL     1     -54.268 -40.429 -64.612  0.00  0.00    +0.000 HD
ENDROOT
BRANCH   1  15
ATOM     15  S   UNL     1     -56.872 -40.456 -64.547  0.00  0.00    +0.000 S 
ATOM     16  O   UNL     1     -57.845 -40.026 -63.484  0.00  0.00    +0.000 OA
BRANCH  15  17
ATOM     17  C   UNL     1     -57.796 -41.438 -65.765  0.00  0.00    +0.000 C 
BRANCH  17  21
ATOM     18  C   UNL     1     -55.031 -42.598 -69.916  0.00  0.00    +0.000 C 
ATOM     19  C   UNL     1     -55.891 -42.467 -68.725  0.00  0.00    +0.000 A 
ATOM     20  C   UNL     1     -56.135 -41.467 -67.813  0.00  0.00    +0.000 A 
ATOM     21  C   UNL     1     -57.150 -41.986 -66.980  0.00  0.00    +0.000 A 
ATOM     22  N   UNL     1     -57.447 -43.250 -67.329  0.00  0.00    +0.000 NA
ATOM     23  O   UNL     1     -56.658 -43.545 -68.422  0.00  0.00    +0.000 OA
ENDBRANCH  17  21
ENDBRANCH  15  17
ENDBRANCH   1  15
BRANCH  13  24
ATOM     24  C   UNL     1     -57.251 -43.557 -63.245  0.00  0.00    +0.000 C 
ATOM     25  O   UNL     1     -57.500 -44.207 -64.246  0.00  0.00    +0.000 OA
BRANCH  24  26
ATOM     26  C   UNL     1     -58.150 -43.604 -62.077  0.00  0.00    +0.000 C 
ATOM     27  C   UNL     1     -59.374 -42.725 -62.048  0.00  0.00    +0.000 C 
ATOM     28  C   UNL     1     -58.239 -42.446 -61.111  0.00  0.00    +0.000 C 
ENDBRANCH  24  26
ENDBRANCH  13  24
TORSDOF 5
