REMARK VINA RESULT:    -6.747      4.004      6.254
REMARK INTER + INTRA:          -9.627
REMARK INTER:                  -8.474
REMARK INTRA:                  -1.152
REMARK UNBOUND:                -0.908
REMARK  Name = 
REMARK  6 active torsions:
REMARK  status: ('A' for Active; 'I' for Inactive)
REMARK    1  A    between atoms: C_1  and  C_2
REMARK    2  A    between atoms: C_4  and  C_5
REMARK    3  A    between atoms: C_5  and  S_6
REMARK    4  A    between atoms: S_6  and  C_8
REMARK    5  A    between atoms: C_20  and  C_21
REMARK    6  A    between atoms: C_21  and  C_23
REMARK                            x       y       z     vdW  Elec       q    Type
REMARK                         _______ _______ _______ _____ _____    ______ ____
ROOT
ATOM      1  C   UNL     1     -54.773 -43.324 -78.126  0.00  0.00    +0.000 A 
ATOM      2  N   UNL     1     -54.928 -44.370 -79.056  0.00  0.00    +0.000 N 
ATOM      3  C   UNL     1     -55.317 -45.669 -78.628  0.00  0.00    +0.000 A 
ATOM      4  C   UNL     1     -55.860 -46.633 -79.496  0.00  0.00    +0.000 A 
ATOM      5 BR   UNL     1     -56.286 -46.203 -81.294  0.00  0.00    +0.000 Br
ATOM      6  C   UNL     1     -56.128 -47.937 -79.056  0.00  0.00    +0.000 A 
ATOM      7  C   UNL     1     -55.877 -48.283 -77.723  0.00  0.00    +0.000 A 
ATOM      8  C   UNL     1     -55.341 -47.343 -76.843  0.00  0.00    +0.000 A 
ATOM      9 CL   UNL     1     -55.136 -47.847 -75.204  0.00  0.00    +0.000 Cl
ATOM     10  C   UNL     1     -55.044 -46.052 -77.305  0.00  0.00    +0.000 A 
ATOM     11  C   UNL     1     -54.397 -45.020 -76.472  0.00  0.00    +0.000 A 
ATOM     12  O   UNL     1     -53.614 -45.311 -75.577  0.00  0.00    +0.000 OA
ATOM     13  C   UNL     1     -54.662 -43.581 -76.803  0.00  0.00    +0.000 A 
ATOM     14  H   UNL     1     -55.399 -44.059 -79.917  0.00  0.00    +0.000 HD
ENDROOT
BRANCH   1  15
ATOM     15  S   UNL     1     -55.187 -41.704 -78.823  0.00  0.00    +0.000 S 
ATOM     16  O   UNL     1     -55.671 -42.013 -80.214  0.00  0.00    +0.000 OA
BRANCH  15  17
ATOM     17  C   UNL     1     -53.676 -40.708 -78.982  0.00  0.00    +0.000 C 
BRANCH  17  21
ATOM     18  C   UNL     1     -49.936 -40.964 -75.495  0.00  0.00    +0.000 C 
ATOM     19  C   UNL     1     -51.044 -40.691 -76.428  0.00  0.00    +0.000 A 
ATOM     20  C   UNL     1     -51.623 -41.379 -77.469  0.00  0.00    +0.000 A 
ATOM     21  C   UNL     1     -52.709 -40.569 -77.869  0.00  0.00    +0.000 A 
ATOM     22  N   UNL     1     -52.736 -39.430 -77.155  0.00  0.00    +0.000 NA
ATOM     23  O   UNL     1     -51.694 -39.513 -76.255  0.00  0.00    +0.000 OA
ENDBRANCH  17  21
ENDBRANCH  15  17
ENDBRANCH   1  15
BRANCH  13  24
ATOM     24  C   UNL     1     -54.925 -42.730 -75.608  0.00  0.00    +0.000 C 
ATOM     25  O   UNL     1     -54.003 -42.219 -74.996  0.00  0.00    +0.000 OA
BRANCH  24  26
ATOM     26  C   UNL     1     -56.323 -42.478 -75.209  0.00  0.00    +0.000 C 
ATOM     27  C   UNL     1     -56.618 -41.994 -73.812  0.00  0.00    +0.000 C 
ATOM     28  C   UNL     1     -57.028 -43.376 -74.221  0.00  0.00    +0.000 C 
ENDBRANCH  24  26
ENDBRANCH  13  24
TORSDOF 5
