REMARK  Name = 
REMARK  6 active torsions:
REMARK  status: ('A' for Active; 'I' for Inactive)
REMARK    1  A    between atoms: C_1  and  C_2
REMARK    2  A    between atoms: C_2  and  C_4
REMARK    3  A    between atoms: C_5  and  S_6
REMARK    4  A    between atoms: S_6  and  C_8
REMARK    5  A    between atoms: C_8  and  C_9
REMARK    6  A    between atoms: C_11  and  C_12
REMARK                            x       y       z     vdW  Elec       q    Type
REMARK                         _______ _______ _______ _____ _____    ______ ____
ROOT
ATOM      1  C   UNL     1       3.104  -1.326  -0.459  0.00  0.00    +0.000 A 
ATOM      2  C   UNL     1       2.780  -2.008  -1.581  0.00  0.00    +0.000 A 
ATOM      3  N   UNL     1       3.457  -3.133  -2.008  0.00  0.00    +0.000 N 
ATOM      4  C   UNL     1       4.611  -3.615  -1.374  0.00  0.00    +0.000 A 
ATOM      5  C   UNL     1       5.260  -4.775  -1.843  0.00  0.00    +0.000 A 
ATOM      6 BR   UNL     1       4.637  -5.678  -3.396  0.00  0.00    +0.000 Br
ATOM      7  C   UNL     1       6.369  -5.294  -1.185  0.00  0.00    +0.000 A 
ATOM      8  C   UNL     1       6.846  -4.665  -0.038  0.00  0.00    +0.000 A 
ATOM      9  C   UNL     1       6.208  -3.522   0.461  0.00  0.00    +0.000 A 
ATOM     10 CL   UNL     1       6.922  -2.846   1.883  0.00  0.00    +0.000 Cl
ATOM     11  C   UNL     1       5.072  -3.005  -0.196  0.00  0.00    +0.000 A 
ATOM     12  C   UNL     1       4.329  -1.803   0.276  0.00  0.00    +0.000 A 
ATOM     13  O   UNL     1       4.737  -1.174   1.245  0.00  0.00    +0.000 OA
ATOM     14  H   UNL     1       3.360  -3.365  -2.997  0.00  0.00    +0.000 HD
ENDROOT
BRANCH   1  16
ATOM     15  C   UNL     1       2.471   0.230   1.527  0.00  0.00    +0.000 C 
ATOM     16  C   UNL     1       2.351  -0.129   0.063  0.00  0.00    +0.000 C 
ATOM     17  O   UNL     1       1.625   0.547  -0.663  0.00  0.00    +0.000 OA
ENDBRANCH   1  16
BRANCH   2  18
ATOM     18  S   UNL     1       1.488  -1.404  -2.717  0.00  0.00    +0.000 S 
ATOM     19  O   UNL     1       2.221  -1.228  -4.022  0.00  0.00    +0.000 OA
BRANCH  18  20
ATOM     20  C   UNL     1       0.510  -2.938  -2.892  0.00  0.00    +0.000 C 
BRANCH  20  21
ATOM     21  C   UNL     1      -0.697  -2.758  -3.752  0.00  0.00    +0.000 A 
ATOM     22  C   UNL     1      -0.865  -2.014  -4.949  0.00  0.00    +0.000 A 
ATOM     23  C   UNL     1      -2.167  -2.239  -5.319  0.00  0.00    +0.000 A 
ATOM     24  C   UNL     1      -3.025  -1.768  -6.422  0.00  0.00    +0.000 C 
ATOM     25  O   UNL     1      -2.740  -3.091  -4.428  0.00  0.00    +0.000 OA
ATOM     26  N   UNL     1      -1.821  -3.425  -3.450  0.00  0.00    +0.000 NA
ENDBRANCH  20  21
ENDBRANCH  18  20
ENDBRANCH   2  18
TORSDOF 4
