REMARK VINA RESULT:    -5.571     14.788     16.455
REMARK INTER + INTRA:          -7.633
REMARK INTER:                  -6.920
REMARK INTRA:                  -0.713
REMARK UNBOUND:                -0.760
REMARK  Name = 
REMARK  6 active torsions:
REMARK  status: ('A' for Active; 'I' for Inactive)
REMARK    1  A    between atoms: C_1  and  C_2
REMARK    2  A    between atoms: C_2  and  C_4
REMARK    3  A    between atoms: C_5  and  S_6
REMARK    4  A    between atoms: S_6  and  C_8
REMARK    5  A    between atoms: C_8  and  C_9
REMARK    6  A    between atoms: C_11  and  C_12
REMARK                            x       y       z     vdW  Elec       q    Type
REMARK                         _______ _______ _______ _____ _____    ______ ____
ROOT
ATOM      1  C   UNL     1     -55.803 -42.562 -79.211  0.00  0.00    +0.000 A 
ATOM      2  C   UNL     1     -55.454 -43.616 -78.433  0.00  0.00    +0.000 A 
ATOM      3  N   UNL     1     -54.481 -43.545 -77.458  0.00  0.00    +0.000 N 
ATOM      4  C   UNL     1     -53.700 -42.401 -77.235  0.00  0.00    +0.000 A 
ATOM      5  C   UNL     1     -52.768 -42.359 -76.181  0.00  0.00    +0.000 A 
ATOM      6 BR   UNL     1     -52.500 -43.864 -75.052  0.00  0.00    +0.000 Br
ATOM      7  C   UNL     1     -52.026 -41.208 -75.924  0.00  0.00    +0.000 A 
ATOM      8  C   UNL     1     -52.203 -40.082 -76.723  0.00  0.00    +0.000 A 
ATOM      9  C   UNL     1     -53.144 -40.093 -77.763  0.00  0.00    +0.000 A 
ATOM     10 CL   UNL     1     -53.244 -38.624 -78.671  0.00  0.00    +0.000 Cl
ATOM     11  C   UNL     1     -53.919 -41.242 -78.001  0.00  0.00    +0.000 A 
ATOM     12  C   UNL     1     -54.973 -41.315 -79.047  0.00  0.00    +0.000 A 
ATOM     13  O   UNL     1     -55.150 -40.374 -79.810  0.00  0.00    +0.000 OA
ATOM     14  H   UNL     1     -54.067 -44.433 -77.173  0.00  0.00    +0.000 HD
ENDROOT
BRANCH   1  16
ATOM     15  C   UNL     1     -58.299 -42.161 -79.780  0.00  0.00    +0.000 C 
ATOM     16  C   UNL     1     -56.913 -42.571 -80.225  0.00  0.00    +0.000 C 
ATOM     17  O   UNL     1     -56.730 -42.935 -81.389  0.00  0.00    +0.000 OA
ENDBRANCH   1  16
BRANCH   2  18
ATOM     18  S   UNL     1     -56.164 -45.273 -78.716  0.00  0.00    +0.000 S 
ATOM     19  O   UNL     1     -55.303 -45.840 -79.812  0.00  0.00    +0.000 OA
BRANCH  18  20
ATOM     20  C   UNL     1     -55.618 -46.088 -77.173  0.00  0.00    +0.000 C 
BRANCH  20  21
ATOM     21  C   UNL     1     -56.039 -47.517 -77.122  0.00  0.00    +0.000 A 
ATOM     22  C   UNL     1     -57.316 -48.081 -77.375  0.00  0.00    +0.000 A 
ATOM     23  C   UNL     1     -57.120 -49.437 -77.279  0.00  0.00    +0.000 A 
ATOM     24  C   UNL     1     -57.987 -50.620 -77.435  0.00  0.00    +0.000 C 
ATOM     25  O   UNL     1     -55.815 -49.677 -76.981  0.00  0.00    +0.000 OA
ATOM     26  N   UNL     1     -55.133 -48.477 -76.887  0.00  0.00    +0.000 NA
ENDBRANCH  20  21
ENDBRANCH  18  20
ENDBRANCH   2  18
TORSDOF 4
