REMARK VINA RESULT:    -6.077     14.195     16.612
REMARK INTER + INTRA:          -9.009
REMARK INTER:                  -8.262
REMARK INTRA:                  -0.747
REMARK UNBOUND:                -1.155
REMARK  Name = 
REMARK  6 active torsions:
REMARK  status: ('A' for Active; 'I' for Inactive)
REMARK    1  A    between atoms: C_1  and  C_2
REMARK    2  A    between atoms: C_4  and  C_5
REMARK    3  A    between atoms: C_5  and  S_6
REMARK    4  A    between atoms: S_6  and  C_8
REMARK    5  A    between atoms: C_20  and  C_21
REMARK    6  A    between atoms: C_21  and  C_23
REMARK                            x       y       z     vdW  Elec       q    Type
REMARK                         _______ _______ _______ _____ _____    ______ ____
ROOT
ATOM      1  C   UNL     1     -54.351 -42.171 -77.256  0.00  0.00    +0.000 A 
ATOM      2  N   UNL     1     -55.017 -43.140 -78.031  0.00  0.00    +0.000 N 
ATOM      3  C   UNL     1     -54.540 -43.484 -79.325  0.00  0.00    +0.000 A 
ATOM      4  C   UNL     1     -54.894 -44.678 -79.981  0.00  0.00    +0.000 A 
ATOM      5 BR   UNL     1     -55.908 -46.016 -79.099  0.00  0.00    +0.000 Br
ATOM      6  C   UNL     1     -54.489 -44.928 -81.300  0.00  0.00    +0.000 A 
ATOM      7  C   UNL     1     -53.696 -43.989 -81.971  0.00  0.00    +0.000 A 
ATOM      8  C   UNL     1     -53.331 -42.800 -81.340  0.00  0.00    +0.000 A 
ATOM      9 CL   UNL     1     -52.292 -41.742 -82.226  0.00  0.00    +0.000 Cl
ATOM     10  C   UNL     1     -53.772 -42.546 -80.032  0.00  0.00    +0.000 A 
ATOM     11  C   UNL     1     -53.508 -41.282 -79.317  0.00  0.00    +0.000 A 
ATOM     12  O   UNL     1     -53.390 -40.218 -79.911  0.00  0.00    +0.000 OA
ATOM     13  C   UNL     1     -53.466 -41.318 -77.818  0.00  0.00    +0.000 A 
ATOM     14  H   UNL     1     -55.315 -43.949 -77.470  0.00  0.00    +0.000 HD
ENDROOT
BRANCH   1  15
ATOM     15  S   UNL     1     -54.467 -42.501 -75.478  0.00  0.00    +0.000 S 
ATOM     16  O   UNL     1     -54.572 -43.999 -75.387  0.00  0.00    +0.000 OA
BRANCH  15  17
ATOM     17  C   UNL     1     -56.016 -41.807 -74.831  0.00  0.00    +0.000 C 
BRANCH  17  21
ATOM     18  C   UNL     1     -59.482 -39.913 -78.090  0.00  0.00    +0.000 C 
ATOM     19  C   UNL     1     -58.587 -40.643 -77.173  0.00  0.00    +0.000 A 
ATOM     20  C   UNL     1     -57.432 -40.331 -76.496  0.00  0.00    +0.000 A 
ATOM     21  C   UNL     1     -57.156 -41.477 -75.717  0.00  0.00    +0.000 A 
ATOM     22  N   UNL     1     -58.054 -42.445 -75.968  0.00  0.00    +0.000 NA
ATOM     23  O   UNL     1     -58.947 -41.918 -76.878  0.00  0.00    +0.000 OA
ENDBRANCH  17  21
ENDBRANCH  15  17
ENDBRANCH   1  15
BRANCH  13  24
ATOM     24  C   UNL     1     -52.340 -40.537 -77.231  0.00  0.00    +0.000 C 
ATOM     25  O   UNL     1     -52.487 -39.364 -76.937  0.00  0.00    +0.000 OA
BRANCH  24  26
ATOM     26  C   UNL     1     -51.060 -41.222 -76.969  0.00  0.00    +0.000 C 
ATOM     27  C   UNL     1     -50.680 -41.566 -75.552  0.00  0.00    +0.000 C 
ATOM     28  C   UNL     1     -49.916 -40.509 -76.289  0.00  0.00    +0.000 C 
ENDBRANCH  24  26
ENDBRANCH  13  24
TORSDOF 5
