REMARK VINA RESULT:    -6.202     12.858     14.774
REMARK INTER + INTRA:          -9.252
REMARK INTER:                  -8.072
REMARK INTRA:                  -1.180
REMARK UNBOUND:                -1.238
REMARK  Name = 
REMARK  8 active torsions:
REMARK  status: ('A' for Active; 'I' for Inactive)
REMARK    1  A    between atoms: C_1  and  C_2
REMARK    2  A    between atoms: C_4  and  C_5
REMARK    3  A    between atoms: C_5  and  S_6
REMARK    4  A    between atoms: S_6  and  C_8
REMARK    5  A    between atoms: C_20  and  C_21
REMARK    6  A    between atoms: C_21  and  C_23
REMARK    7  A    between atoms: C_23  and  C_24
REMARK    8  A    between atoms: C_23  and  C_25
REMARK                            x       y       z     vdW  Elec       q    Type
REMARK                         _______ _______ _______ _____ _____    ______ ____
ROOT
ATOM      1  C   UNL     1     -54.582 -41.934 -77.115  0.00  0.00    +0.000 A 
ATOM      2  N   UNL     1     -55.856 -42.128 -77.641  0.00  0.00    +0.000 N 
ATOM      3  C   UNL     1     -56.117 -41.980 -79.017  0.00  0.00    +0.000 A 
ATOM      4  C   UNL     1     -57.245 -42.556 -79.632  0.00  0.00    +0.000 A 
ATOM      5 BR   UNL     1     -58.400 -43.710 -78.666  0.00  0.00    +0.000 Br
ATOM      6  C   UNL     1     -57.522 -42.329 -80.983  0.00  0.00    +0.000 A 
ATOM      7  C   UNL     1     -56.673 -41.527 -81.740  0.00  0.00    +0.000 A 
ATOM      8  C   UNL     1     -55.537 -40.947 -81.147  0.00  0.00    +0.000 A 
ATOM      9 CL   UNL     1     -54.523 -40.032 -82.202  0.00  0.00    +0.000 Cl
ATOM     10  C   UNL     1     -55.261 -41.171 -79.782  0.00  0.00    +0.000 A 
ATOM     11  C   UNL     1     -54.108 -40.579 -79.056  0.00  0.00    +0.000 A 
ATOM     12  O   UNL     1     -53.586 -39.548 -79.467  0.00  0.00    +0.000 OA
ATOM     13  C   UNL     1     -53.613 -41.270 -77.788  0.00  0.00    +0.000 A 
ATOM     14  H   UNL     1     -56.404 -42.849 -77.152  0.00  0.00    +0.000 HD
ENDROOT
BRANCH   1  15
ATOM     15  S   UNL     1     -54.354 -42.860 -75.550  0.00  0.00    +0.000 S 
ATOM     16  O   UNL     1     -53.120 -43.685 -75.797  0.00  0.00    +0.000 OA
BRANCH  15  17
ATOM     17  C   UNL     1     -55.797 -43.976 -75.509  0.00  0.00    +0.000 C 
BRANCH  17  21
ATOM     18  C   UNL     1     -54.912 -48.909 -76.807  0.00  0.00    +0.000 C 
ATOM     19  C   UNL     1     -55.177 -47.463 -76.640  0.00  0.00    +0.000 A 
ATOM     20  C   UNL     1     -55.421 -46.635 -75.568  0.00  0.00    +0.000 A 
ATOM     21  C   UNL     1     -55.560 -45.333 -76.130  0.00  0.00    +0.000 A 
ATOM     22  N   UNL     1     -55.426 -45.397 -77.466  0.00  0.00    +0.000 NA
ATOM     23  O   UNL     1     -55.185 -46.721 -77.777  0.00  0.00    +0.000 OA
ENDBRANCH  17  21
ENDBRANCH  15  17
ENDBRANCH   1  15
BRANCH  13  24
ATOM     24  C   UNL     1     -52.136 -41.156 -77.485  0.00  0.00    +0.000 C 
ATOM     25  O   UNL     1     -51.313 -41.742 -78.188  0.00  0.00    +0.000 OA
BRANCH  24  26
ATOM     26  C   UNL     1     -51.656 -40.368 -76.266  0.00  0.00    +0.000 C 
ATOM     27  C   UNL     1     -50.235 -40.756 -75.864  0.00  0.00    +0.000 C 
ATOM     28  C   UNL     1     -51.750 -38.856 -76.489  0.00  0.00    +0.000 C 
ENDBRANCH  24  26
ENDBRANCH  13  24
TORSDOF 5
