REMARK VINA RESULT:    -6.324     11.803     13.800
REMARK INTER + INTRA:          -8.470
REMARK INTER:                  -7.500
REMARK INTRA:                  -0.970
REMARK UNBOUND:                -0.667
REMARK  Name = 
REMARK  6 active torsions:
REMARK  status: ('A' for Active; 'I' for Inactive)
REMARK    1  A    between atoms: C_1  and  C_2
REMARK    2  A    between atoms: C_2  and  C_4
REMARK    3  A    between atoms: C_5  and  S_6
REMARK    4  A    between atoms: S_6  and  C_8
REMARK    5  A    between atoms: C_8  and  C_9
REMARK    6  A    between atoms: C_11  and  C_12
REMARK                            x       y       z     vdW  Elec       q    Type
REMARK                         _______ _______ _______ _____ _____    ______ ____
ROOT
ATOM      1  C   UNL     1     -54.718 -42.506 -77.568  0.00  0.00    +0.000 A 
ATOM      2  C   UNL     1     -55.804 -42.958 -78.233  0.00  0.00    +0.000 A 
ATOM      3  N   UNL     1     -56.318 -44.230 -78.068  0.00  0.00    +0.000 N 
ATOM      4  C   UNL     1     -55.703 -45.206 -77.266  0.00  0.00    +0.000 A 
ATOM      5  C   UNL     1     -56.287 -46.476 -77.097  0.00  0.00    +0.000 A 
ATOM      6 BR   UNL     1     -57.895 -46.939 -77.997  0.00  0.00    +0.000 Br
ATOM      7  C   UNL     1     -55.709 -47.427 -76.259  0.00  0.00    +0.000 A 
ATOM      8  C   UNL     1     -54.538 -47.119 -75.574  0.00  0.00    +0.000 A 
ATOM      9  C   UNL     1     -53.951 -45.855 -75.704  0.00  0.00    +0.000 A 
ATOM     10 CL   UNL     1     -52.505 -45.619 -74.785  0.00  0.00    +0.000 Cl
ATOM     11  C   UNL     1     -54.545 -44.883 -76.535  0.00  0.00    +0.000 A 
ATOM     12  C   UNL     1     -53.992 -43.513 -76.717  0.00  0.00    +0.000 A 
ATOM     13  O   UNL     1     -52.916 -43.214 -76.214  0.00  0.00    +0.000 OA
ATOM     14  H   UNL     1     -56.895 -44.580 -78.834  0.00  0.00    +0.000 HD
ENDROOT
BRANCH   1  16
ATOM     15  C   UNL     1     -53.164 -40.780 -78.733  0.00  0.00    +0.000 C 
ATOM     16  C   UNL     1     -54.178 -41.104 -77.659  0.00  0.00    +0.000 C 
ATOM     17  O   UNL     1     -54.515 -40.226 -76.865  0.00  0.00    +0.000 OA
ENDBRANCH   1  16
BRANCH   2  18
ATOM     18  S   UNL     1     -56.585 -41.968 -79.551  0.00  0.00    +0.000 S 
ATOM     19  O   UNL     1     -56.716 -42.944 -80.690  0.00  0.00    +0.000 OA
BRANCH  18  20
ATOM     20  C   UNL     1     -58.262 -41.790 -78.844  0.00  0.00    +0.000 C 
BRANCH  20  21
ATOM     21  C   UNL     1     -58.215 -41.310 -77.429  0.00  0.00    +0.000 A 
ATOM     22  C   UNL     1     -58.552 -42.003 -76.236  0.00  0.00    +0.000 A 
ATOM     23  C   UNL     1     -58.252 -41.123 -75.228  0.00  0.00    +0.000 A 
ATOM     24  C   UNL     1     -58.332 -41.173 -73.755  0.00  0.00    +0.000 C 
ATOM     25  O   UNL     1     -57.766 -39.978 -75.771  0.00  0.00    +0.000 OA
ATOM     26  N   UNL     1     -57.736 -40.090 -77.149  0.00  0.00    +0.000 NA
ENDBRANCH  20  21
ENDBRANCH  18  20
ENDBRANCH   2  18
TORSDOF 4
