REMARK VINA RESULT:    -5.503      4.260      6.852
REMARK INTER + INTRA:          -8.037
REMARK INTER:                  -7.133
REMARK INTRA:                  -0.904
REMARK UNBOUND:                -0.925
REMARK  Name = 
REMARK  8 active torsions:
REMARK  status: ('A' for Active; 'I' for Inactive)
REMARK    1  A    between atoms: C_1  and  C_2
REMARK    2  A    between atoms: C_4  and  C_5
REMARK    3  A    between atoms: C_5  and  S_6
REMARK    4  A    between atoms: S_6  and  C_8
REMARK    5  A    between atoms: C_20  and  C_21
REMARK    6  A    between atoms: C_21  and  C_23
REMARK    7  A    between atoms: C_23  and  C_24
REMARK    8  A    between atoms: C_23  and  C_25
REMARK                            x       y       z     vdW  Elec       q    Type
REMARK                         _______ _______ _______ _____ _____    ______ ____
ROOT
ATOM      1  C   UNL     1     -56.172 -44.686 -77.723  0.00  0.00    +0.000 A 
ATOM      2  N   UNL     1     -57.222 -43.952 -78.270  0.00  0.00    +0.000 N 
ATOM      3  C   UNL     1     -57.608 -42.703 -77.739  0.00  0.00    +0.000 A 
ATOM      4  C   UNL     1     -58.376 -41.782 -78.478  0.00  0.00    +0.000 A 
ATOM      5 CL   UNL     1     -58.746 -42.074 -80.140  0.00  0.00    +0.000 Cl
ATOM      6  C   UNL     1     -58.834 -40.599 -77.898  0.00  0.00    +0.000 A 
ATOM      7  C   UNL     1     -58.525 -40.319 -76.565  0.00  0.00    +0.000 A 
ATOM      8  C   UNL     1     -57.750 -41.216 -75.818  0.00  0.00    +0.000 A 
ATOM      9 CL   UNL     1     -57.379 -40.730 -74.205  0.00  0.00    +0.000 Cl
ATOM     10  C   UNL     1     -57.304 -42.411 -76.402  0.00  0.00    +0.000 A 
ATOM     11  C   UNL     1     -56.547 -43.468 -75.686  0.00  0.00    +0.000 A 
ATOM     12  O   UNL     1     -56.695 -43.595 -74.476  0.00  0.00    +0.000 OA
ATOM     13  C   UNL     1     -55.672 -44.429 -76.481  0.00  0.00    +0.000 A 
ATOM     14  H   UNL     1     -57.295 -44.038 -79.292  0.00  0.00    +0.000 HD
ENDROOT
BRANCH   1  15
ATOM     15  S   UNL     1     -55.435 -45.819 -78.969  0.00  0.00    +0.000 S 
ATOM     16  O   UNL     1     -54.725 -44.893 -79.917  0.00  0.00    +0.000 OA
BRANCH  15  17
ATOM     17  C   UNL     1     -56.912 -46.478 -79.844  0.00  0.00    +0.000 C 
BRANCH  17  21
ATOM     18  C   UNL     1     -58.467 -50.492 -76.980  0.00  0.00    +0.000 C 
ATOM     19  C   UNL     1     -58.212 -49.350 -77.882  0.00  0.00    +0.000 A 
ATOM     20  C   UNL     1     -57.211 -48.416 -78.016  0.00  0.00    +0.000 A 
ATOM     21  C   UNL     1     -57.589 -47.627 -79.139  0.00  0.00    +0.000 A 
ATOM     22  N   UNL     1     -58.769 -48.053 -79.621  0.00  0.00    +0.000 NA
ATOM     23  O   UNL     1     -59.149 -49.127 -78.841  0.00  0.00    +0.000 OA
ENDBRANCH  17  21
ENDBRANCH  15  17
ENDBRANCH   1  15
BRANCH  13  24
ATOM     24  C   UNL     1     -54.423 -44.894 -75.761  0.00  0.00    +0.000 C 
ATOM     25  O   UNL     1     -54.245 -46.102 -75.554  0.00  0.00    +0.000 OA
BRANCH  24  26
ATOM     26  C   UNL     1     -53.437 -43.922 -75.141  0.00  0.00    +0.000 C 
ATOM     27  C   UNL     1     -52.279 -44.687 -74.529  0.00  0.00    +0.000 C 
ATOM     28  C   UNL     1     -53.002 -42.851 -76.134  0.00  0.00    +0.000 C 
ENDBRANCH  24  26
ENDBRANCH  13  24
TORSDOF 5
