REMARK VINA RESULT:    -5.233     14.739     16.128
REMARK INTER + INTRA:          -7.661
REMARK INTER:                  -7.084
REMARK INTRA:                  -0.577
REMARK UNBOUND:                -0.899
REMARK  Name = 
REMARK  6 active torsions:
REMARK  status: ('A' for Active; 'I' for Inactive)
REMARK    1  A    between atoms: C_1  and  C_2
REMARK    2  A    between atoms: C_4  and  C_5
REMARK    3  A    between atoms: C_5  and  S_6
REMARK    4  A    between atoms: S_6  and  C_8
REMARK    5  A    between atoms: C_20  and  C_21
REMARK    6  A    between atoms: C_21  and  C_23
REMARK                            x       y       z     vdW  Elec       q    Type
REMARK                         _______ _______ _______ _____ _____    ______ ____
ROOT
ATOM      1  C   UNL     1     -57.514 -39.934 -61.966  0.00  0.00    +0.000 A 
ATOM      2  N   UNL     1     -57.789 -38.697 -61.352  0.00  0.00    +0.000 N 
ATOM      3  C   UNL     1     -57.418 -37.478 -61.984  0.00  0.00    +0.000 A 
ATOM      4  C   UNL     1     -57.986 -36.235 -61.646  0.00  0.00    +0.000 A 
ATOM      5 BR   UNL     1     -59.435 -36.119 -60.428  0.00  0.00    +0.000 Br
ATOM      6  C   UNL     1     -57.514 -35.043 -62.215  0.00  0.00    +0.000 A 
ATOM      7  C   UNL     1     -56.479 -35.088 -63.157  0.00  0.00    +0.000 A 
ATOM      8  C   UNL     1     -55.903 -36.309 -63.509  0.00  0.00    +0.000 A 
ATOM      9 CL   UNL     1     -54.685 -36.264 -64.732  0.00  0.00    +0.000 Cl
ATOM     10  C   UNL     1     -56.360 -37.490 -62.906  0.00  0.00    +0.000 A 
ATOM     11  C   UNL     1     -55.756 -38.814 -63.151  0.00  0.00    +0.000 A 
ATOM     12  O   UNL     1     -54.569 -38.940 -63.424  0.00  0.00    +0.000 OA
ATOM     13  C   UNL     1     -56.623 -40.026 -62.978  0.00  0.00    +0.000 A 
ATOM     14  H   UNL     1     -58.724 -38.674 -60.924  0.00  0.00    +0.000 HD
ENDROOT
BRANCH   1  15
ATOM     15  S   UNL     1     -58.756 -41.195 -61.578  0.00  0.00    +0.000 S 
ATOM     16  O   UNL     1     -60.057 -40.439 -61.562  0.00  0.00    +0.000 OA
BRANCH  15  17
ATOM     17  C   UNL     1     -58.474 -41.827 -59.898  0.00  0.00    +0.000 C 
BRANCH  17  21
ATOM     18  C   UNL     1     -54.243 -43.459 -57.521  0.00  0.00    +0.000 C 
ATOM     19  C   UNL     1     -55.365 -43.048 -58.386  0.00  0.00    +0.000 A 
ATOM     20  C   UNL     1     -56.633 -42.569 -58.161  0.00  0.00    +0.000 A 
ATOM     21  C   UNL     1     -57.141 -42.290 -59.450  0.00  0.00    +0.000 A 
ATOM     22  N   UNL     1     -56.253 -42.649 -60.394  0.00  0.00    +0.000 NA
ATOM     23  O   UNL     1     -55.144 -43.121 -59.723  0.00  0.00    +0.000 OA
ENDBRANCH  17  21
ENDBRANCH  15  17
ENDBRANCH   1  15
BRANCH  13  24
ATOM     24  C   UNL     1     -56.460 -41.038 -64.060  0.00  0.00    +0.000 C 
ATOM     25  O   UNL     1     -55.899 -42.097 -63.839  0.00  0.00    +0.000 OA
BRANCH  24  26
ATOM     26  C   UNL     1     -57.033 -40.756 -65.390  0.00  0.00    +0.000 C 
ATOM     27  C   UNL     1     -57.942 -41.769 -66.036  0.00  0.00    +0.000 C 
ATOM     28  C   UNL     1     -56.582 -41.517 -66.614  0.00  0.00    +0.000 C 
ENDBRANCH  24  26
ENDBRANCH  13  24
TORSDOF 5
