REMARK VINA RESULT:    -6.771     10.863     13.298
REMARK INTER + INTRA:          -9.645
REMARK INTER:                  -8.775
REMARK INTRA:                  -0.869
REMARK UNBOUND:                -0.894
REMARK  Name = 
REMARK  8 active torsions:
REMARK  status: ('A' for Active; 'I' for Inactive)
REMARK    1  A    between atoms: C_1  and  C_2
REMARK    2  A    between atoms: C_4  and  C_5
REMARK    3  A    between atoms: C_5  and  S_6
REMARK    4  A    between atoms: S_6  and  C_8
REMARK    5  A    between atoms: C_20  and  C_21
REMARK    6  A    between atoms: C_21  and  C_23
REMARK    7  A    between atoms: C_23  and  C_24
REMARK    8  A    between atoms: C_23  and  C_25
REMARK                            x       y       z     vdW  Elec       q    Type
REMARK                         _______ _______ _______ _____ _____    ______ ____
ROOT
ATOM      1  C   UNL     1     -57.694 -40.854 -63.043  0.00  0.00    +0.000 A 
ATOM      2  N   UNL     1     -57.266 -39.603 -62.604  0.00  0.00    +0.000 N 
ATOM      3  C   UNL     1     -56.166 -38.947 -63.195  0.00  0.00    +0.000 A 
ATOM      4  C   UNL     1     -55.955 -37.561 -63.050  0.00  0.00    +0.000 A 
ATOM      5 CL   UNL     1     -57.133 -36.566 -62.270  0.00  0.00    +0.000 Cl
ATOM      6  C   UNL     1     -54.806 -36.952 -63.554  0.00  0.00    +0.000 A 
ATOM      7  C   UNL     1     -53.849 -37.725 -64.216  0.00  0.00    +0.000 A 
ATOM      8  C   UNL     1     -54.048 -39.101 -64.383  0.00  0.00    +0.000 A 
ATOM      9 CL   UNL     1     -52.829 -39.937 -65.275  0.00  0.00    +0.000 Cl
ATOM     10  C   UNL     1     -55.199 -39.711 -63.862  0.00  0.00    +0.000 A 
ATOM     11  C   UNL     1     -55.475 -41.170 -63.909  0.00  0.00    +0.000 A 
ATOM     12  O   UNL     1     -54.536 -41.956 -63.948  0.00  0.00    +0.000 OA
ATOM     13  C   UNL     1     -56.915 -41.660 -63.818  0.00  0.00    +0.000 A 
ATOM     14  H   UNL     1     -58.034 -38.989 -62.301  0.00  0.00    +0.000 HD
ENDROOT
BRANCH   1  15
ATOM     15  S   UNL     1     -59.470 -41.122 -62.654  0.00  0.00    +0.000 S 
ATOM     16  O   UNL     1     -59.995 -39.733 -62.412  0.00  0.00    +0.000 OA
BRANCH  15  17
ATOM     17  C   UNL     1     -59.407 -41.979 -61.028  0.00  0.00    +0.000 C 
BRANCH  17  21
ATOM     18  C   UNL     1     -61.709 -46.604 -61.238  0.00  0.00    +0.000 C 
ATOM     19  C   UNL     1     -61.212 -45.222 -61.062  0.00  0.00    +0.000 A 
ATOM     20  C   UNL     1     -60.035 -44.566 -61.337  0.00  0.00    +0.000 A 
ATOM     21  C   UNL     1     -60.264 -43.217 -60.947  0.00  0.00    +0.000 A 
ATOM     22  N   UNL     1     -61.500 -43.092 -60.435  0.00  0.00    +0.000 NA
ATOM     23  O   UNL     1     -62.088 -44.340 -60.515  0.00  0.00    +0.000 OA
ENDBRANCH  17  21
ENDBRANCH  15  17
ENDBRANCH   1  15
BRANCH  13  24
ATOM     24  C   UNL     1     -57.207 -42.918 -64.609  0.00  0.00    +0.000 C 
ATOM     25  O   UNL     1     -57.376 -43.992 -64.017  0.00  0.00    +0.000 OA
BRANCH  24  26
ATOM     26  C   UNL     1     -57.155 -42.952 -66.125  0.00  0.00    +0.000 C 
ATOM     27  C   UNL     1     -57.937 -44.147 -66.638  0.00  0.00    +0.000 C 
ATOM     28  C   UNL     1     -57.599 -41.627 -66.733  0.00  0.00    +0.000 C 
ENDBRANCH  24  26
ENDBRANCH  13  24
TORSDOF 5
