REMARK VINA RESULT:    -7.004      2.914      5.635
REMARK INTER + INTRA:          -9.946
REMARK INTER:                  -8.230
REMARK INTRA:                  -1.716
REMARK UNBOUND:                -0.894
REMARK  Name = 
REMARK  8 active torsions:
REMARK  status: ('A' for Active; 'I' for Inactive)
REMARK    1  A    between atoms: C_1  and  C_2
REMARK    2  A    between atoms: C_4  and  C_5
REMARK    3  A    between atoms: C_5  and  S_6
REMARK    4  A    between atoms: S_6  and  C_8
REMARK    5  A    between atoms: C_20  and  C_21
REMARK    6  A    between atoms: C_21  and  C_23
REMARK    7  A    between atoms: C_23  and  C_24
REMARK    8  A    between atoms: C_23  and  C_25
REMARK                            x       y       z     vdW  Elec       q    Type
REMARK                         _______ _______ _______ _____ _____    ______ ____
ROOT
ATOM      1  C   UNL     1     -56.048 -41.824 -77.649  0.00  0.00    +0.000 A 
ATOM      2  N   UNL     1     -55.219 -40.718 -77.480  0.00  0.00    +0.000 N 
ATOM      3  C   UNL     1     -53.892 -40.849 -77.021  0.00  0.00    +0.000 A 
ATOM      4  C   UNL     1     -52.932 -39.835 -77.207  0.00  0.00    +0.000 A 
ATOM      5 CL   UNL     1     -53.297 -38.438 -78.157  0.00  0.00    +0.000 Cl
ATOM      6  C   UNL     1     -51.656 -39.942 -76.654  0.00  0.00    +0.000 A 
ATOM      7  C   UNL     1     -51.321 -41.073 -75.906  0.00  0.00    +0.000 A 
ATOM      8  C   UNL     1     -52.257 -42.099 -75.722  0.00  0.00    +0.000 A 
ATOM      9 CL   UNL     1     -51.705 -43.474 -74.838  0.00  0.00    +0.000 Cl
ATOM     10  C   UNL     1     -53.543 -41.980 -76.269  0.00  0.00    +0.000 A 
ATOM     11  C   UNL     1     -54.638 -42.964 -76.072  0.00  0.00    +0.000 A 
ATOM     12  O   UNL     1     -54.649 -43.651 -75.058  0.00  0.00    +0.000 OA
ATOM     13  C   UNL     1     -55.769 -43.036 -77.090  0.00  0.00    +0.000 A 
ATOM     14  H   UNL     1     -55.373 -39.979 -78.179  0.00  0.00    +0.000 HD
ENDROOT
BRANCH   1  15
ATOM     15  S   UNL     1     -57.365 -41.485 -78.886  0.00  0.00    +0.000 S 
ATOM     16  O   UNL     1     -58.493 -42.384 -78.460  0.00  0.00    +0.000 OA
BRANCH  15  17
ATOM     17  C   UNL     1     -56.659 -42.182 -80.434  0.00  0.00    +0.000 C 
BRANCH  17  21
ATOM     18  C   UNL     1     -51.500 -42.470 -80.625  0.00  0.00    +0.000 C 
ATOM     19  C   UNL     1     -52.952 -42.191 -80.633  0.00  0.00    +0.000 A 
ATOM     20  C   UNL     1     -54.092 -42.950 -80.506  0.00  0.00    +0.000 A 
ATOM     21  C   UNL     1     -55.165 -42.017 -80.562  0.00  0.00    +0.000 A 
ATOM     22  N   UNL     1     -54.684 -40.776 -80.747  0.00  0.00    +0.000 NA
ATOM     23  O   UNL     1     -53.307 -40.889 -80.784  0.00  0.00    +0.000 OA
ENDBRANCH  17  21
ENDBRANCH  15  17
ENDBRANCH   1  15
BRANCH  13  24
ATOM     24  C   UNL     1     -56.346 -44.421 -77.301  0.00  0.00    +0.000 C 
ATOM     25  O   UNL     1     -57.351 -44.771 -76.668  0.00  0.00    +0.000 OA
BRANCH  24  26
ATOM     26  C   UNL     1     -55.652 -45.467 -78.152  0.00  0.00    +0.000 C 
ATOM     27  C   UNL     1     -55.032 -46.526 -77.260  0.00  0.00    +0.000 C 
ATOM     28  C   UNL     1     -56.583 -46.035 -79.216  0.00  0.00    +0.000 C 
ENDBRANCH  24  26
ENDBRANCH  13  24
TORSDOF 5
