=
 OpenBabel09172513213D

 28 31  0  0  1  0  0  0  0  0999 V2000
  -55.8700  -42.7380  -76.7490 C   0  0  2  0  0  3  0  0  0  0  0  0
  -54.5580  -43.1270  -76.4160 N   0  0  0  0  0  0  0  0  0  0  0  0
  -53.5220  -42.1590  -76.3060 C   0  0  0  0  0  0  0  0  0  0  0  0
  -52.3180  -42.3960  -75.6160 C   0  0  0  0  0  0  0  0  0  0  0  0
  -52.0610  -43.9880  -74.6160 Br  0  0  0  0  0  0  0  0  0  0  0  0
  -51.2790  -41.4560  -75.6260 C   0  0  0  0  0  3  0  0  0  0  0  0
  -51.4460  -40.2460  -76.3090 C   0  0  0  0  0  3  0  0  0  0  0  0
  -52.6310  -39.9870  -76.9980 C   0  0  0  0  0  0  0  0  0  0  0  0
  -52.7670  -38.4370  -77.7470 Cl  0  0  0  0  0  0  0  0  0  0  0  0
  -53.6500  -40.9510  -77.0110 C   0  0  0  0  0  0  0  0  0  0  0  0
  -54.9000  -40.8030  -77.7810 C   0  0  0  0  0  0  0  0  0  0  0  0
  -54.9420  -40.1670  -78.8270 O   0  0  0  0  0  0  0  0  0  0  0  0
  -56.1200  -41.5240  -77.2880 C   0  0  2  0  0  3  0  0  0  0  0  0
  -54.5390  -43.8390  -75.6730 H   0  0  0  0  0  0  0  0  0  0  0  0
  -57.1250  -43.7970  -75.9840 S   0  0  2  0  0  0  0  0  0  0  0  0
  -57.9300  -44.3140  -77.1450 O   0  0  0  0  0  0  0  0  0  0  0  0
  -58.2350  -42.7830  -74.9630 C   0  0  0  0  0  2  0  0  0  0  0  0
  -55.9220  -40.9670  -70.7710 C   0  0  0  0  0  1  0  0  0  0  0  0
  -56.6880  -41.3020  -71.9860 C   0  0  0  0  0  0  0  0  0  0  0  0
  -56.7030  -42.3660  -72.8570 C   0  0  0  0  0  3  0  0  0  0  0  0
  -57.7570  -42.0760  -73.7520 C   0  0  0  0  0  0  0  0  0  0  0  0
  -58.2930  -40.8750  -73.4760 N   0  0  0  0  0  0  0  0  0  0  0  0
  -57.6220  -40.3960  -72.3700 O   0  0  0  0  0  0  0  0  0  0  0  0
  -57.3600  -40.6990  -77.3260 C   0  0  0  0  0  0  0  0  0  0  0  0
  -57.5460  -39.8200  -76.5020 O   0  0  0  0  0  0  0  0  0  0  0  0
  -58.3370  -40.9330  -78.4070 C   0  0  0  0  0  3  0  0  0  0  0  0
  -59.6410  -40.1760  -78.4040 C   0  0  0  0  0  2  0  0  0  0  0  0
  -59.6390  -41.6520  -78.1430 C   0  0  0  0  0  2  0  0  0  0  0  0
  1  2  1  0  0  0  0
  1 15  1  1  0  0  0
  2  3  1  0  0  0  0
  2 14  1  0  0  0  0
  3  4  1  0  0  0  0
  4  5  1  0  0  0  0
  6  4  2  0  0  0  0
  7  6  1  0  0  0  0
  8  7  2  0  0  0  0
  9  8  1  0  0  0  0
 10  8  1  0  0  0  0
 10  3  2  0  0  0  0
 11 13  1  0  0  0  0
 11 10  1  0  0  0  0
 12 11  2  0  0  0  0
 13 24  1  1  0  0  0
 13  1  1  0  0  0  0
 15 16  2  6  0  0  0
 15 17  1  0  0  0  0
 17 21  1  0  0  0  0
 19 18  1  0  0  0  0
 20 19  2  0  0  0  0
 21 22  2  0  0  0  0
 21 20  1  0  0  0  0
 22 23  1  0  0  0  0
 23 19  1  0  0  0  0
 24 25  2  0  0  0  0
 26 27  1  0  0  0  0
 26 28  1  0  0  0  0
 26 24  1  0  0  0  0
 27 28  1  0  0  0  0
M  END
>  <MODEL>
1

>  <REMARK>
 VINA RESULT:    -7.496      0.000      0.000
 INTER + INTRA:         -10.563
 INTER:                  -9.687
 INTRA:                  -0.876
 UNBOUND:                -0.876
  Name = 
  6 active torsions:
  status: ('A' for Active; 'I' for Inactive)
    1  A    between atoms: C_1  and  C_2
    2  A    between atoms: C_4  and  C_5
    3  A    between atoms: C_5  and  S_6
    4  A    between atoms: S_6  and  C_8
    5  A    between atoms: C_20  and  C_21
    6  A    between atoms: C_21  and  C_23
                            x       y       z     vdW  Elec       q    Type
                         _______ _______ _______ _____ _____    ______ ____

>  <TORSDO>
F 5

$$$$
