REMARK VINA RESULT:    -7.154      0.000      0.000
REMARK INTER + INTRA:         -10.185
REMARK INTER:                  -9.245
REMARK INTRA:                  -0.940
REMARK UNBOUND:                -0.940
REMARK  Name = 
REMARK  6 active torsions:
REMARK  status: ('A' for Active; 'I' for Inactive)
REMARK    1  A    between atoms: C_1  and  C_2
REMARK    2  A    between atoms: C_4  and  C_5
REMARK    3  A    between atoms: C_5  and  S_6
REMARK    4  A    between atoms: S_6  and  C_8
REMARK    5  A    between atoms: C_20  and  C_21
REMARK    6  A    between atoms: C_21  and  C_23
REMARK                            x       y       z     vdW  Elec       q    Type
REMARK                         _______ _______ _______ _____ _____    ______ ____
ROOT
ATOM      1  C   UNL     1     -55.473 -42.044 -63.181  0.00  0.00    +0.000 A 
ATOM      2  N   UNL     1     -54.675 -43.204 -63.175  0.00  0.00    +0.000 N 
ATOM      3  C   UNL     1     -53.286 -43.128 -63.469  0.00  0.00    +0.000 A 
ATOM      4  C   UNL     1     -52.369 -44.134 -63.111  0.00  0.00    +0.000 A 
ATOM      5 BR   UNL     1     -52.899 -45.605 -62.036  0.00  0.00    +0.000 Br
ATOM      6  C   UNL     1     -51.028 -44.072 -63.516  0.00  0.00    +0.000 A 
ATOM      7  C   UNL     1     -50.582 -42.978 -64.267  0.00  0.00    +0.000 A 
ATOM      8  C   UNL     1     -51.472 -41.968 -64.632  0.00  0.00    +0.000 A 
ATOM      9 CL   UNL     1     -50.808 -40.628 -65.495  0.00  0.00    +0.000 Cl
ATOM     10  C   UNL     1     -52.819 -42.060 -64.251  0.00  0.00    +0.000 A 
ATOM     11  C   UNL     1     -53.849 -41.086 -64.662  0.00  0.00    +0.000 A 
ATOM     12  O   UNL     1     -53.777 -40.482 -65.725  0.00  0.00    +0.000 OA
ATOM     13  C   UNL     1     -55.043 -40.908 -63.773  0.00  0.00    +0.000 A 
ATOM     14  H   UNL     1     -54.898 -43.826 -62.386  0.00  0.00    +0.000 HD
ENDROOT
BRANCH   1  15
ATOM     15  S   UNL     1     -56.829 -42.125 -61.982  0.00  0.00    +0.000 S 
ATOM     16  O   UNL     1     -56.401 -43.193 -61.012  0.00  0.00    +0.000 OA
BRANCH  15  17
ATOM     17  C   UNL     1     -58.336 -42.715 -62.808  0.00  0.00    +0.000 C 
BRANCH  17  21
ATOM     18  C   UNL     1     -58.669 -42.714 -67.918  0.00  0.00    +0.000 C 
ATOM     19  C   UNL     1     -58.734 -42.575 -66.451  0.00  0.00    +0.000 A 
ATOM     20  C   UNL     1     -58.100 -43.183 -65.393  0.00  0.00    +0.000 A 
ATOM     21  C   UNL     1     -58.573 -42.495 -64.254  0.00  0.00    +0.000 A 
ATOM     22  N   UNL     1     -59.490 -41.576 -64.604  0.00  0.00    +0.000 NA
ATOM     23  O   UNL     1     -59.585 -41.629 -65.979  0.00  0.00    +0.000 OA
ENDBRANCH  17  21
ENDBRANCH  15  17
ENDBRANCH   1  15
BRANCH  13  24
ATOM     24  C   UNL     1     -55.431 -39.483 -63.569  0.00  0.00    +0.000 C 
ATOM     25  O   UNL     1     -56.580 -39.121 -63.754  0.00  0.00    +0.000 OA
BRANCH  24  26
ATOM     26  C   UNL     1     -54.411 -38.529 -63.094  0.00  0.00    +0.000 C 
ATOM     27  C   UNL     1     -54.773 -37.074 -62.938  0.00  0.00    +0.000 C 
ATOM     28  C   UNL     1     -53.820 -37.490 -64.017  0.00  0.00    +0.000 C 
ENDBRANCH  24  26
ENDBRANCH  13  24
TORSDOF 5
