REMARK VINA RESULT:    -5.691     13.231     15.357
REMARK INTER + INTRA:          -8.482
REMARK INTER:                  -7.415
REMARK INTRA:                  -1.067
REMARK UNBOUND:                -1.127
REMARK  Name = 
REMARK  8 active torsions:
REMARK  status: ('A' for Active; 'I' for Inactive)
REMARK    1  A    between atoms: C_1  and  C_2
REMARK    2  A    between atoms: C_4  and  C_5
REMARK    3  A    between atoms: C_5  and  S_6
REMARK    4  A    between atoms: S_6  and  C_8
REMARK    5  A    between atoms: C_20  and  C_21
REMARK    6  A    between atoms: C_21  and  C_23
REMARK    7  A    between atoms: C_23  and  C_24
REMARK    8  A    between atoms: C_23  and  C_25
REMARK                            x       y       z     vdW  Elec       q    Type
REMARK                         _______ _______ _______ _____ _____    ______ ____
ROOT
ATOM      1  C   UNL     1     -56.006 -43.551 -78.117  0.00  0.00    +0.000 A 
ATOM      2  N   UNL     1     -55.382 -44.084 -76.993  0.00  0.00    +0.000 N 
ATOM      3  C   UNL     1     -55.401 -45.466 -76.724  0.00  0.00    +0.000 A 
ATOM      4  C   UNL     1     -54.464 -46.075 -75.867  0.00  0.00    +0.000 A 
ATOM      5 BR   UNL     1     -53.012 -45.088 -75.150  0.00  0.00    +0.000 Br
ATOM      6  C   UNL     1     -54.553 -47.435 -75.555  0.00  0.00    +0.000 A 
ATOM      7  C   UNL     1     -55.576 -48.206 -76.098  0.00  0.00    +0.000 A 
ATOM      8  C   UNL     1     -56.518 -47.619 -76.962  0.00  0.00    +0.000 A 
ATOM      9 CL   UNL     1     -57.697 -48.690 -77.629  0.00  0.00    +0.000 Cl
ATOM     10  C   UNL     1     -56.433 -46.245 -77.271  0.00  0.00    +0.000 A 
ATOM     11  C   UNL     1     -57.395 -45.525 -78.144  0.00  0.00    +0.000 A 
ATOM     12  O   UNL     1     -58.533 -45.961 -78.296  0.00  0.00    +0.000 OA
ATOM     13  C   UNL     1     -56.942 -44.234 -78.819  0.00  0.00    +0.000 A 
ATOM     14  H   UNL     1     -54.530 -43.580 -76.711  0.00  0.00    +0.000 HD
ENDROOT
BRANCH   1  15
ATOM     15  S   UNL     1     -55.248 -41.958 -78.615  0.00  0.00    +0.000 S 
ATOM     16  O   UNL     1     -53.921 -42.359 -79.199  0.00  0.00    +0.000 OA
BRANCH  15  17
ATOM     17  C   UNL     1     -54.949 -41.121 -77.021  0.00  0.00    +0.000 C 
BRANCH  17  21
ATOM     18  C   UNL     1     -49.982 -40.887 -75.580  0.00  0.00    +0.000 C 
ATOM     19  C   UNL     1     -51.368 -40.772 -76.086  0.00  0.00    +0.000 A 
ATOM     20  C   UNL     1     -52.471 -41.595 -76.100  0.00  0.00    +0.000 A 
ATOM     21  C   UNL     1     -53.496 -40.830 -76.728  0.00  0.00    +0.000 A 
ATOM     22  N   UNL     1     -53.013 -39.627 -77.084  0.00  0.00    +0.000 NA
ATOM     23  O   UNL     1     -51.692 -39.595 -76.680  0.00  0.00    +0.000 OA
ENDBRANCH  17  21
ENDBRANCH  15  17
ENDBRANCH   1  15
BRANCH  13  24
ATOM     24  C   UNL     1     -57.554 -43.920 -80.166  0.00  0.00    +0.000 C 
ATOM     25  O   UNL     1     -58.518 -43.159 -80.246  0.00  0.00    +0.000 OA
BRANCH  24  26
ATOM     26  C   UNL     1     -57.025 -44.596 -81.432  0.00  0.00    +0.000 C 
ATOM     27  C   UNL     1     -55.541 -44.936 -81.314  0.00  0.00    +0.000 C 
ATOM     28  C   UNL     1     -57.829 -45.847 -81.792  0.00  0.00    +0.000 C 
ENDBRANCH  24  26
ENDBRANCH  13  24
TORSDOF 5
