REMARK VINA RESULT:    -6.436      3.335      4.520
REMARK INTER + INTRA:          -8.657
REMARK INTER:                  -7.674
REMARK INTRA:                  -0.983
REMARK UNBOUND:                -0.716
REMARK  Name = 
REMARK  6 active torsions:
REMARK  status: ('A' for Active; 'I' for Inactive)
REMARK    1  A    between atoms: C_1  and  C_2
REMARK    2  A    between atoms: C_2  and  C_4
REMARK    3  A    between atoms: C_5  and  S_6
REMARK    4  A    between atoms: S_6  and  C_8
REMARK    5  A    between atoms: C_8  and  C_9
REMARK    6  A    between atoms: C_11  and  C_12
REMARK                            x       y       z     vdW  Elec       q    Type
REMARK                         _______ _______ _______ _____ _____    ______ ____
ROOT
ATOM      1  C   UNL     1     -54.356 -42.449 -77.291  0.00  0.00    +0.000 A 
ATOM      2  C   UNL     1     -55.465 -42.889 -77.926  0.00  0.00    +0.000 A 
ATOM      3  N   UNL     1     -56.013 -44.141 -77.725  0.00  0.00    +0.000 N 
ATOM      4  C   UNL     1     -55.375 -45.136 -76.962  0.00  0.00    +0.000 A 
ATOM      5  C   UNL     1     -55.943 -46.416 -76.834  0.00  0.00    +0.000 A 
ATOM      6 BR   UNL     1     -57.542 -46.877 -77.752  0.00  0.00    +0.000 Br
ATOM      7  C   UNL     1     -55.345 -47.389 -76.036  0.00  0.00    +0.000 A 
ATOM      8  C   UNL     1     -54.176 -47.085 -75.345  0.00  0.00    +0.000 A 
ATOM      9  C   UNL     1     -53.605 -45.813 -75.437  0.00  0.00    +0.000 A 
ATOM     10 CL   UNL     1     -52.148 -45.592 -74.531  0.00  0.00    +0.000 Cl
ATOM     11  C   UNL     1     -54.216 -44.822 -76.234  0.00  0.00    +0.000 A 
ATOM     12  C   UNL     1     -53.679 -43.439 -76.382  0.00  0.00    +0.000 A 
ATOM     13  O   UNL     1     -52.653 -43.117 -75.790  0.00  0.00    +0.000 OA
ATOM     14  H   UNL     1     -56.597 -44.489 -78.489  0.00  0.00    +0.000 HD
ENDROOT
BRANCH   1  16
ATOM     15  C   UNL     1     -52.632 -40.883 -78.469  0.00  0.00    +0.000 C 
ATOM     16  C   UNL     1     -53.753 -41.077 -77.473  0.00  0.00    +0.000 C 
ATOM     17  O   UNL     1     -54.145 -40.107 -76.822  0.00  0.00    +0.000 OA
ENDBRANCH   1  16
BRANCH   2  18
ATOM     18  S   UNL     1     -56.246 -41.916 -79.256  0.00  0.00    +0.000 S 
ATOM     19  O   UNL     1     -56.318 -42.889 -80.403  0.00  0.00    +0.000 OA
BRANCH  18  20
ATOM     20  C   UNL     1     -57.946 -41.799 -78.587  0.00  0.00    +0.000 C 
BRANCH  20  21
ATOM     21  C   UNL     1     -57.966 -41.317 -77.172  0.00  0.00    +0.000 A 
ATOM     22  C   UNL     1     -58.402 -41.967 -75.988  0.00  0.00    +0.000 A 
ATOM     23  C   UNL     1     -58.191 -41.049 -74.989  0.00  0.00    +0.000 A 
ATOM     24  C   UNL     1     -58.460 -41.017 -73.540  0.00  0.00    +0.000 C 
ATOM     25  O   UNL     1     -57.614 -39.940 -75.522  0.00  0.00    +0.000 OA
ATOM     26  N   UNL     1     -57.465 -40.105 -76.887  0.00  0.00    +0.000 NA
ENDBRANCH  20  21
ENDBRANCH  18  20
ENDBRANCH   2  18
TORSDOF 4
