REMARK VINA RESULT:    -6.081     10.816     13.472
REMARK INTER + INTRA:          -8.855
REMARK INTER:                  -7.946
REMARK INTRA:                  -0.909
REMARK UNBOUND:                -0.997
REMARK  Name = 
REMARK  8 active torsions:
REMARK  status: ('A' for Active; 'I' for Inactive)
REMARK    1  A    between atoms: C_1  and  C_2
REMARK    2  A    between atoms: C_4  and  C_5
REMARK    3  A    between atoms: C_5  and  S_6
REMARK    4  A    between atoms: S_6  and  C_8
REMARK    5  A    between atoms: C_20  and  C_21
REMARK    6  A    between atoms: C_21  and  C_23
REMARK    7  A    between atoms: C_23  and  C_24
REMARK    8  A    between atoms: C_23  and  C_25
REMARK                            x       y       z     vdW  Elec       q    Type
REMARK                         _______ _______ _______ _____ _____    ______ ____
ROOT
ATOM      1  C   UNL     1     -57.539 -40.818 -63.264  0.00  0.00    +0.000 A 
ATOM      2  N   UNL     1     -57.066 -39.598 -62.788  0.00  0.00    +0.000 N 
ATOM      3  C   UNL     1     -55.927 -38.978 -63.344  0.00  0.00    +0.000 A 
ATOM      4  C   UNL     1     -55.659 -37.606 -63.162  0.00  0.00    +0.000 A 
ATOM      5 CL   UNL     1     -56.806 -36.578 -62.380  0.00  0.00    +0.000 Cl
ATOM      6  C   UNL     1     -54.475 -37.037 -63.631  0.00  0.00    +0.000 A 
ATOM      7  C   UNL     1     -53.541 -37.836 -64.295  0.00  0.00    +0.000 A 
ATOM      8  C   UNL     1     -53.796 -39.198 -64.498  0.00  0.00    +0.000 A 
ATOM      9 CL   UNL     1     -52.599 -40.065 -65.389  0.00  0.00    +0.000 Cl
ATOM     10  C   UNL     1     -54.982 -39.768 -64.012  0.00  0.00    +0.000 A 
ATOM     11  C   UNL     1     -55.321 -41.212 -64.098  0.00  0.00    +0.000 A 
ATOM     12  O   UNL     1     -54.416 -42.037 -64.140  0.00  0.00    +0.000 OA
ATOM     13  C   UNL     1     -56.782 -41.640 -64.044  0.00  0.00    +0.000 A 
ATOM     14  H   UNL     1     -57.811 -38.958 -62.483  0.00  0.00    +0.000 HD
ENDROOT
BRANCH   1  15
ATOM     15  S   UNL     1     -59.333 -41.017 -62.912  0.00  0.00    +0.000 S 
ATOM     16  O   UNL     1     -59.648 -39.859 -62.005  0.00  0.00    +0.000 OA
BRANCH  15  17
ATOM     17  C   UNL     1     -59.381 -42.546 -61.891  0.00  0.00    +0.000 C 
BRANCH  17  21
ATOM     18  C   UNL     1     -57.857 -42.012 -56.979  0.00  0.00    +0.000 C 
ATOM     19  C   UNL     1     -58.091 -42.188 -58.428  0.00  0.00    +0.000 A 
ATOM     20  C   UNL     1     -59.199 -42.369 -59.222  0.00  0.00    +0.000 A 
ATOM     21  C   UNL     1     -58.696 -42.418 -60.553  0.00  0.00    +0.000 A 
ATOM     22  N   UNL     1     -57.357 -42.305 -60.541  0.00  0.00    +0.000 NA
ATOM     23  O   UNL     1     -56.987 -42.156 -59.218  0.00  0.00    +0.000 OA
ENDBRANCH  17  21
ENDBRANCH  15  17
ENDBRANCH   1  15
BRANCH  13  24
ATOM     24  C   UNL     1     -57.115 -42.866 -64.870  0.00  0.00    +0.000 C 
ATOM     25  O   UNL     1     -57.335 -43.946 -64.307  0.00  0.00    +0.000 OA
BRANCH  24  26
ATOM     26  C   UNL     1     -57.044 -42.865 -66.385  0.00  0.00    +0.000 C 
ATOM     27  C   UNL     1     -57.831 -44.039 -66.936  0.00  0.00    +0.000 C 
ATOM     28  C   UNL     1     -57.466 -41.521 -66.968  0.00  0.00    +0.000 C 
ENDBRANCH  24  26
ENDBRANCH  13  24
TORSDOF 5
