REMARK VINA RESULT:    -5.361     12.901     15.852
REMARK INTER + INTRA:          -7.926
REMARK INTER:                  -6.856
REMARK INTRA:                  -1.069
REMARK UNBOUND:                -0.998
REMARK  Name = 
REMARK  6 active torsions:
REMARK  status: ('A' for Active; 'I' for Inactive)
REMARK    1  A    between atoms: C_1  and  C_2
REMARK    2  A    between atoms: C_4  and  C_5
REMARK    3  A    between atoms: C_5  and  S_6
REMARK    4  A    between atoms: S_6  and  C_8
REMARK    5  A    between atoms: C_20  and  C_21
REMARK    6  A    between atoms: C_21  and  C_23
REMARK                            x       y       z     vdW  Elec       q    Type
REMARK                         _______ _______ _______ _____ _____    ______ ____
ROOT
ATOM      1  C   UNL     1     -57.728 -41.750 -78.410  0.00  0.00    +0.000 A 
ATOM      2  N   UNL     1     -56.342 -41.567 -78.579  0.00  0.00    +0.000 N 
ATOM      3  C   UNL     1     -55.810 -41.182 -79.840  0.00  0.00    +0.000 A 
ATOM      4  C   UNL     1     -54.532 -40.613 -79.994  0.00  0.00    +0.000 A 
ATOM      5 BR   UNL     1     -53.481 -40.146 -78.486  0.00  0.00    +0.000 Br
ATOM      6  C   UNL     1     -54.004 -40.350 -81.265  0.00  0.00    +0.000 A 
ATOM      7  C   UNL     1     -54.767 -40.631 -82.404  0.00  0.00    +0.000 A 
ATOM      8  C   UNL     1     -56.037 -41.194 -82.277  0.00  0.00    +0.000 A 
ATOM      9 CL   UNL     1     -56.926 -41.435 -83.738  0.00  0.00    +0.000 Cl
ATOM     10  C   UNL     1     -56.541 -41.485 -81.000  0.00  0.00    +0.000 A 
ATOM     11  C   UNL     1     -57.834 -42.158 -80.771  0.00  0.00    +0.000 A 
ATOM     12  O   UNL     1     -58.295 -42.961 -81.572  0.00  0.00    +0.000 OA
ATOM     13  C   UNL     1     -58.545 -41.892 -79.477  0.00  0.00    +0.000 A 
ATOM     14  H   UNL     1     -55.914 -41.076 -77.782  0.00  0.00    +0.000 HD
ENDROOT
BRANCH   1  15
ATOM     15  S   UNL     1     -58.288 -41.326 -76.739  0.00  0.00    +0.000 S 
ATOM     16  O   UNL     1     -57.583 -40.034 -76.430  0.00  0.00    +0.000 OA
BRANCH  15  17
ATOM     17  C   UNL     1     -57.682 -42.571 -75.563  0.00  0.00    +0.000 C 
BRANCH  17  21
ATOM     18  C   UNL     1     -52.728 -43.686 -74.904  0.00  0.00    +0.000 C 
ATOM     19  C   UNL     1     -54.161 -43.538 -75.218  0.00  0.00    +0.000 A 
ATOM     20  C   UNL     1     -55.160 -42.691 -74.800  0.00  0.00    +0.000 A 
ATOM     21  C   UNL     1     -56.280 -43.049 -75.582  0.00  0.00    +0.000 A 
ATOM     22  N   UNL     1     -55.988 -44.098 -76.371  0.00  0.00    +0.000 NA
ATOM     23  O   UNL     1     -54.662 -44.398 -76.140  0.00  0.00    +0.000 OA
ENDBRANCH  17  21
ENDBRANCH  15  17
ENDBRANCH   1  15
BRANCH  13  24
ATOM     24  C   UNL     1     -60.010 -41.662 -79.634  0.00  0.00    +0.000 C 
ATOM     25  O   UNL     1     -60.807 -42.547 -79.377  0.00  0.00    +0.000 OA
BRANCH  24  26
ATOM     26  C   UNL     1     -60.479 -40.330 -80.061  0.00  0.00    +0.000 C 
ATOM     27  C   UNL     1     -61.862 -40.181 -80.640  0.00  0.00    +0.000 C 
ATOM     28  C   UNL     1     -60.665 -39.996 -81.522  0.00  0.00    +0.000 C 
ENDBRANCH  24  26
ENDBRANCH  13  24
TORSDOF 5
