REMARK VINA RESULT:    -7.331     12.367     13.672
REMARK INTER + INTRA:         -10.348
REMARK INTER:                  -9.074
REMARK INTRA:                  -1.274
REMARK UNBOUND:                -0.874
REMARK  Name = 
REMARK  8 active torsions:
REMARK  status: ('A' for Active; 'I' for Inactive)
REMARK    1  A    between atoms: C_1  and  C_2
REMARK    2  A    between atoms: C_4  and  C_5
REMARK    3  A    between atoms: C_5  and  S_6
REMARK    4  A    between atoms: S_6  and  C_8
REMARK    5  A    between atoms: C_20  and  C_21
REMARK    6  A    between atoms: C_21  and  C_23
REMARK    7  A    between atoms: C_23  and  C_24
REMARK    8  A    between atoms: C_23  and  C_25
REMARK                            x       y       z     vdW  Elec       q    Type
REMARK                         _______ _______ _______ _____ _____    ______ ____
ROOT
ATOM      1  C   UNL     1     -55.716 -41.498 -63.366  0.00  0.00    +0.000 A 
ATOM      2  N   UNL     1     -54.415 -41.092 -63.647  0.00  0.00    +0.000 N 
ATOM      3  C   UNL     1     -53.364 -42.019 -63.779  0.00  0.00    +0.000 A 
ATOM      4  C   UNL     1     -52.169 -41.706 -64.454  0.00  0.00    +0.000 A 
ATOM      5 BR   UNL     1     -51.970 -40.058 -65.372  0.00  0.00    +0.000 Br
ATOM      6  C   UNL     1     -51.110 -42.618 -64.503  0.00  0.00    +0.000 A 
ATOM      7  C   UNL     1     -51.233 -43.858 -63.883  0.00  0.00    +0.000 A 
ATOM      8  C   UNL     1     -52.421 -44.194 -63.209  0.00  0.00    +0.000 A 
ATOM      9 CL   UNL     1     -52.483 -45.785 -62.541  0.00  0.00    +0.000 Cl
ATOM     10  C   UNL     1     -53.487 -43.271 -63.153  0.00  0.00    +0.000 A 
ATOM     11  C   UNL     1     -54.767 -43.516 -62.441  0.00  0.00    +0.000 A 
ATOM     12  O   UNL     1     -54.814 -44.328 -61.522  0.00  0.00    +0.000 OA
ATOM     13  C   UNL     1     -56.001 -42.724 -62.866  0.00  0.00    +0.000 A 
ATOM     14  H   UNL     1     -54.359 -40.257 -64.246  0.00  0.00    +0.000 HD
ENDROOT
BRANCH   1  15
ATOM     15  S   UNL     1     -56.945 -40.274 -63.957  0.00  0.00    +0.000 S 
ATOM     16  O   UNL     1     -56.220 -39.536 -65.050  0.00  0.00    +0.000 OA
BRANCH  15  17
ATOM     17  C   UNL     1     -57.137 -39.151 -62.531  0.00  0.00    +0.000 C 
BRANCH  17  21
ATOM     18  C   UNL     1     -54.532 -34.688 -62.836  0.00  0.00    +0.000 C 
ATOM     19  C   UNL     1     -55.102 -36.043 -62.669  0.00  0.00    +0.000 A 
ATOM     20  C   UNL     1     -56.352 -36.599 -62.818  0.00  0.00    +0.000 A 
ATOM     21  C   UNL     1     -56.181 -37.981 -62.519  0.00  0.00    +0.000 A 
ATOM     22  N   UNL     1     -54.900 -38.221 -62.190  0.00  0.00    +0.000 NA
ATOM     23  O   UNL     1     -54.233 -37.014 -62.288  0.00  0.00    +0.000 OA
ENDBRANCH  17  21
ENDBRANCH  15  17
ENDBRANCH   1  15
BRANCH  13  24
ATOM     24  C   UNL     1     -57.337 -43.415 -62.711  0.00  0.00    +0.000 C 
ATOM     25  O   UNL     1     -57.716 -44.226 -63.555  0.00  0.00    +0.000 OA
BRANCH  24  26
ATOM     26  C   UNL     1     -58.258 -43.063 -61.542  0.00  0.00    +0.000 C 
ATOM     27  C   UNL     1     -57.518 -42.296 -60.449  0.00  0.00    +0.000 C 
ATOM     28  C   UNL     1     -59.490 -42.277 -62.001  0.00  0.00    +0.000 C 
ENDBRANCH  24  26
ENDBRANCH  13  24
TORSDOF 5
