REMARK VINA RESULT:    -5.798     14.781     17.737
REMARK INTER + INTRA:          -8.156
REMARK INTER:                  -7.385
REMARK INTRA:                  -0.771
REMARK UNBOUND:                -1.003
REMARK  Name = 
REMARK  6 active torsions:
REMARK  status: ('A' for Active; 'I' for Inactive)
REMARK    1  A    between atoms: C_1  and  C_2
REMARK    2  A    between atoms: C_2  and  C_4
REMARK    3  A    between atoms: C_5  and  S_6
REMARK    4  A    between atoms: S_6  and  C_8
REMARK    5  A    between atoms: C_8  and  C_9
REMARK    6  A    between atoms: C_11  and  C_12
REMARK                            x       y       z     vdW  Elec       q    Type
REMARK                         _______ _______ _______ _____ _____    ______ ____
ROOT
ATOM      1  C   UNL     1     -68.871 -51.312 -55.620  0.00  0.00    +0.000 A 
ATOM      2  C   UNL     1     -68.073 -50.223 -55.695  0.00  0.00    +0.000 A 
ATOM      3  N   UNL     1     -66.891 -50.103 -54.990  0.00  0.00    +0.000 N 
ATOM      4  C   UNL     1     -66.494 -51.024 -54.004  0.00  0.00    +0.000 A 
ATOM      5  C   UNL     1     -65.322 -50.824 -53.253  0.00  0.00    +0.000 A 
ATOM      6 BR   UNL     1     -64.273 -49.255 -53.483  0.00  0.00    +0.000 Br
ATOM      7  C   UNL     1     -64.898 -51.762 -52.313  0.00  0.00    +0.000 A 
ATOM      8  C   UNL     1     -65.639 -52.920 -52.119  0.00  0.00    +0.000 A 
ATOM      9  C   UNL     1     -66.800 -53.159 -52.870  0.00  0.00    +0.000 A 
ATOM     10 CL   UNL     1     -67.616 -54.639 -52.504  0.00  0.00    +0.000 Cl
ATOM     11  C   UNL     1     -67.224 -52.213 -53.827  0.00  0.00    +0.000 A 
ATOM     12  C   UNL     1     -68.444 -52.388 -54.653  0.00  0.00    +0.000 A 
ATOM     13  O   UNL     1     -69.129 -53.388 -54.523  0.00  0.00    +0.000 OA
ATOM     14  H   UNL     1     -66.562 -49.147 -54.844  0.00  0.00    +0.000 HD
ENDROOT
BRANCH   1  16
ATOM     15  C   UNL     1     -71.467 -51.068 -55.765  0.00  0.00    +0.000 C 
ATOM     16  C   UNL     1     -70.160 -51.490 -56.395  0.00  0.00    +0.000 C 
ATOM     17  O   UNL     1     -70.171 -51.978 -57.526  0.00  0.00    +0.000 OA
ENDBRANCH   1  16
BRANCH   2  18
ATOM     18  S   UNL     1     -68.586 -48.728 -56.606  0.00  0.00    +0.000 S 
ATOM     19  O   UNL     1     -69.639 -48.121 -55.718  0.00  0.00    +0.000 OA
BRANCH  18  20
ATOM     20  C   UNL     1     -67.087 -47.704 -56.384  0.00  0.00    +0.000 C 
BRANCH  20  21
ATOM     21  C   UNL     1     -66.290 -47.570 -57.642  0.00  0.00    +0.000 A 
ATOM     22  C   UNL     1     -65.067 -46.890 -57.886  0.00  0.00    +0.000 A 
ATOM     23  C   UNL     1     -64.799 -47.119 -59.215  0.00  0.00    +0.000 A 
ATOM     24  C   UNL     1     -63.741 -46.688 -60.148  0.00  0.00    +0.000 C 
ATOM     25  O   UNL     1     -65.770 -47.919 -59.728  0.00  0.00    +0.000 OA
ATOM     26  N   UNL     1     -66.701 -48.210 -58.747  0.00  0.00    +0.000 NA
ENDBRANCH  20  21
ENDBRANCH  18  20
ENDBRANCH   2  18
TORSDOF 4
