REMARK VINA RESULT:    -5.723      3.849      6.054
REMARK INTER + INTRA:          -8.634
REMARK INTER:                  -7.602
REMARK INTRA:                  -1.032
REMARK UNBOUND:                -1.238
REMARK  Name = 
REMARK  8 active torsions:
REMARK  status: ('A' for Active; 'I' for Inactive)
REMARK    1  A    between atoms: C_1  and  C_2
REMARK    2  A    between atoms: C_4  and  C_5
REMARK    3  A    between atoms: C_5  and  S_6
REMARK    4  A    between atoms: S_6  and  C_8
REMARK    5  A    between atoms: C_20  and  C_21
REMARK    6  A    between atoms: C_21  and  C_23
REMARK    7  A    between atoms: C_23  and  C_24
REMARK    8  A    between atoms: C_23  and  C_25
REMARK                            x       y       z     vdW  Elec       q    Type
REMARK                         _______ _______ _______ _____ _____    ______ ____
ROOT
ATOM      1  C   UNL     1     -57.624 -41.023 -62.927  0.00  0.00    +0.000 A 
ATOM      2  N   UNL     1     -57.223 -39.784 -62.436  0.00  0.00    +0.000 N 
ATOM      3  C   UNL     1     -56.159 -39.068 -63.019  0.00  0.00    +0.000 A 
ATOM      4  C   UNL     1     -56.000 -37.681 -62.836  0.00  0.00    +0.000 A 
ATOM      5 BR   UNL     1     -57.311 -36.662 -61.920  0.00  0.00    +0.000 Br
ATOM      6  C   UNL     1     -54.893 -37.009 -63.360  0.00  0.00    +0.000 A 
ATOM      7  C   UNL     1     -53.930 -37.712 -64.080  0.00  0.00    +0.000 A 
ATOM      8  C   UNL     1     -54.074 -39.097 -64.281  0.00  0.00    +0.000 A 
ATOM      9 CL   UNL     1     -52.856 -39.846 -65.249  0.00  0.00    +0.000 Cl
ATOM     10  C   UNL     1     -55.188 -39.776 -63.745  0.00  0.00    +0.000 A 
ATOM     11  C   UNL     1     -55.414 -41.239 -63.873  0.00  0.00    +0.000 A 
ATOM     12  O   UNL     1     -54.465 -41.993 -64.068  0.00  0.00    +0.000 OA
ATOM     13  C   UNL     1     -56.837 -41.772 -63.736  0.00  0.00    +0.000 A 
ATOM     14  H   UNL     1     -57.992 -39.218 -62.053  0.00  0.00    +0.000 HD
ENDROOT
BRANCH   1  15
ATOM     15  S   UNL     1     -59.377 -41.370 -62.521  0.00  0.00    +0.000 S 
ATOM     16  O   UNL     1     -60.146 -40.609 -63.567  0.00  0.00    +0.000 OA
BRANCH  15  17
ATOM     17  C   UNL     1     -59.608 -40.537 -60.914  0.00  0.00    +0.000 C 
BRANCH  17  21
ATOM     18  C   UNL     1     -62.768 -36.437 -60.938  0.00  0.00    +0.000 C 
ATOM     19  C   UNL     1     -62.036 -37.722 -60.907  0.00  0.00    +0.000 A 
ATOM     20  C   UNL     1     -60.730 -38.105 -61.111  0.00  0.00    +0.000 A 
ATOM     21  C   UNL     1     -60.718 -39.513 -60.891  0.00  0.00    +0.000 A 
ATOM     22  N   UNL     1     -61.958 -39.938 -60.594  0.00  0.00    +0.000 NA
ATOM     23  O   UNL     1     -62.772 -38.821 -60.602  0.00  0.00    +0.000 OA
ENDBRANCH  17  21
ENDBRANCH  15  17
ENDBRANCH   1  15
BRANCH  13  24
ATOM     24  C   UNL     1     -57.179 -43.010 -64.534  0.00  0.00    +0.000 C 
ATOM     25  O   UNL     1     -57.363 -44.084 -63.961  0.00  0.00    +0.000 OA
BRANCH  24  26
ATOM     26  C   UNL     1     -57.234 -42.955 -66.061  0.00  0.00    +0.000 C 
ATOM     27  C   UNL     1     -58.018 -44.129 -66.642  0.00  0.00    +0.000 C 
ATOM     28  C   UNL     1     -57.812 -41.629 -66.565  0.00  0.00    +0.000 C 
ENDBRANCH  24  26
ENDBRANCH  13  24
TORSDOF 5
