REMARK VINA RESULT:    -5.954     13.085     15.922
REMARK INTER + INTRA:          -8.692
REMARK INTER:                  -7.708
REMARK INTRA:                  -0.984
REMARK UNBOUND:                -0.998
REMARK  Name = 
REMARK  6 active torsions:
REMARK  status: ('A' for Active; 'I' for Inactive)
REMARK    1  A    between atoms: C_1  and  C_2
REMARK    2  A    between atoms: C_4  and  C_5
REMARK    3  A    between atoms: C_5  and  S_6
REMARK    4  A    between atoms: S_6  and  C_8
REMARK    5  A    between atoms: C_20  and  C_21
REMARK    6  A    between atoms: C_21  and  C_23
REMARK                            x       y       z     vdW  Elec       q    Type
REMARK                         _______ _______ _______ _____ _____    ______ ____
ROOT
ATOM      1  C   UNL     1     -66.121 -47.835 -55.653  0.00  0.00    +0.000 A 
ATOM      2  N   UNL     1     -66.888 -48.962 -56.006  0.00  0.00    +0.000 N 
ATOM      3  C   UNL     1     -66.991 -50.073 -55.125  0.00  0.00    +0.000 A 
ATOM      4  C   UNL     1     -68.016 -51.034 -55.217  0.00  0.00    +0.000 A 
ATOM      5 BR   UNL     1     -69.457 -50.815 -56.430  0.00  0.00    +0.000 Br
ATOM      6  C   UNL     1     -68.018 -52.172 -54.398  0.00  0.00    +0.000 A 
ATOM      7  C   UNL     1     -67.001 -52.347 -53.453  0.00  0.00    +0.000 A 
ATOM      8  C   UNL     1     -65.976 -51.407 -53.342  0.00  0.00    +0.000 A 
ATOM      9 CL   UNL     1     -64.810 -51.678 -52.097  0.00  0.00    +0.000 Cl
ATOM     10  C   UNL     1     -65.966 -50.290 -54.191  0.00  0.00    +0.000 A 
ATOM     11  C   UNL     1     -64.881 -49.290 -54.206  0.00  0.00    +0.000 A 
ATOM     12  O   UNL     1     -63.726 -49.588 -53.926  0.00  0.00    +0.000 OA
ATOM     13  C   UNL     1     -65.213 -47.898 -54.653  0.00  0.00    +0.000 A 
ATOM     14  H   UNL     1     -67.779 -48.702 -56.451  0.00  0.00    +0.000 HD
ENDROOT
BRANCH   1  15
ATOM     15  S   UNL     1     -66.790 -46.295 -56.334  0.00  0.00    +0.000 S 
ATOM     16  O   UNL     1     -68.153 -46.176 -55.708  0.00  0.00    +0.000 OA
BRANCH  15  17
ATOM     17  C   UNL     1     -67.028 -46.477 -58.126  0.00  0.00    +0.000 C 
BRANCH  17  21
ATOM     18  C   UNL     1     -62.686 -47.200 -60.741  0.00  0.00    +0.000 C 
ATOM     19  C   UNL     1     -64.006 -47.169 -60.084  0.00  0.00    +0.000 A 
ATOM     20  C   UNL     1     -64.586 -46.384 -59.115  0.00  0.00    +0.000 A 
ATOM     21  C   UNL     1     -65.916 -46.851 -59.029  0.00  0.00    +0.000 A 
ATOM     22  N   UNL     1     -66.101 -47.901 -59.848  0.00  0.00    +0.000 NA
ATOM     23  O   UNL     1     -64.904 -48.094 -60.506  0.00  0.00    +0.000 OA
ENDBRANCH  17  21
ENDBRANCH  15  17
ENDBRANCH   1  15
BRANCH  13  24
ATOM     24  C   UNL     1     -64.612 -46.834 -53.799  0.00  0.00    +0.000 C 
ATOM     25  O   UNL     1     -63.795 -46.057 -54.261  0.00  0.00    +0.000 OA
BRANCH  24  26
ATOM     26  C   UNL     1     -65.060 -46.709 -52.399  0.00  0.00    +0.000 C 
ATOM     27  C   UNL     1     -64.425 -45.672 -51.509  0.00  0.00    +0.000 C 
ATOM     28  C   UNL     1     -64.170 -47.126 -51.253  0.00  0.00    +0.000 C 
ENDBRANCH  24  26
ENDBRANCH  13  24
TORSDOF 5
