REMARK VINA RESULT:    -6.627     12.386     14.857
REMARK INTER + INTRA:          -9.323
REMARK INTER:                  -8.185
REMARK INTRA:                  -1.138
REMARK UNBOUND:                -0.760
REMARK  Name = 
REMARK  8 active torsions:
REMARK  status: ('A' for Active; 'I' for Inactive)
REMARK    1  A    between atoms: C_1  and  C_2
REMARK    2  A    between atoms: C_4  and  C_5
REMARK    3  A    between atoms: C_5  and  S_6
REMARK    4  A    between atoms: S_6  and  C_8
REMARK    5  A    between atoms: C_20  and  C_21
REMARK    6  A    between atoms: C_21  and  C_23
REMARK    7  A    between atoms: C_23  and  C_24
REMARK    8  A    between atoms: C_23  and  C_25
REMARK                            x       y       z     vdW  Elec       q    Type
REMARK                         _______ _______ _______ _____ _____    ______ ____
ROOT
ATOM      1  C   UNL     1     -54.283 -41.937 -76.854  0.00  0.00    +0.000 A 
ATOM      2  N   UNL     1     -55.563 -42.126 -77.367  0.00  0.00    +0.000 N 
ATOM      3  C   UNL     1     -55.839 -41.971 -78.739  0.00  0.00    +0.000 A 
ATOM      4  C   UNL     1     -56.974 -42.543 -79.344  0.00  0.00    +0.000 A 
ATOM      5 BR   UNL     1     -58.120 -43.700 -78.371  0.00  0.00    +0.000 Br
ATOM      6  C   UNL     1     -57.266 -42.308 -80.691  0.00  0.00    +0.000 A 
ATOM      7  C   UNL     1     -56.425 -41.503 -81.454  0.00  0.00    +0.000 A 
ATOM      8  C   UNL     1     -55.281 -40.928 -80.870  0.00  0.00    +0.000 A 
ATOM      9 CL   UNL     1     -54.278 -40.009 -81.933  0.00  0.00    +0.000 Cl
ATOM     10  C   UNL     1     -54.991 -41.159 -79.510  0.00  0.00    +0.000 A 
ATOM     11  C   UNL     1     -53.829 -40.573 -78.793  0.00  0.00    +0.000 A 
ATOM     12  O   UNL     1     -53.310 -39.540 -79.205  0.00  0.00    +0.000 OA
ATOM     13  C   UNL     1     -53.320 -41.271 -77.535  0.00  0.00    +0.000 A 
ATOM     14  H   UNL     1     -56.106 -42.849 -76.876  0.00  0.00    +0.000 HD
ENDROOT
BRANCH   1  15
ATOM     15  S   UNL     1     -54.038 -42.871 -75.297  0.00  0.00    +0.000 S 
ATOM     16  O   UNL     1     -52.812 -43.701 -75.564  0.00  0.00    +0.000 OA
BRANCH  15  17
ATOM     17  C   UNL     1     -55.486 -43.981 -75.242  0.00  0.00    +0.000 C 
BRANCH  17  21
ATOM     18  C   UNL     1     -54.785 -48.902 -76.690  0.00  0.00    +0.000 C 
ATOM     19  C   UNL     1     -54.976 -47.450 -76.478  0.00  0.00    +0.000 A 
ATOM     20  C   UNL     1     -55.269 -46.654 -75.394  0.00  0.00    +0.000 A 
ATOM     21  C   UNL     1     -55.274 -45.323 -75.903  0.00  0.00    +0.000 A 
ATOM     22  N   UNL     1     -55.019 -45.339 -77.222  0.00  0.00    +0.000 NA
ATOM     23  O   UNL     1     -54.831 -46.662 -77.574  0.00  0.00    +0.000 OA
ENDBRANCH  17  21
ENDBRANCH  15  17
ENDBRANCH   1  15
BRANCH  13  24
ATOM     24  C   UNL     1     -51.839 -41.161 -77.248  0.00  0.00    +0.000 C 
ATOM     25  O   UNL     1     -51.027 -41.764 -77.948  0.00  0.00    +0.000 OA
BRANCH  24  26
ATOM     26  C   UNL     1     -51.343 -40.354 -76.048  0.00  0.00    +0.000 C 
ATOM     27  C   UNL     1     -49.929 -40.759 -75.639  0.00  0.00    +0.000 C 
ATOM     28  C   UNL     1     -51.409 -38.846 -76.305  0.00  0.00    +0.000 C 
ENDBRANCH  24  26
ENDBRANCH  13  24
TORSDOF 5
