=
 OpenBabel09162515373D

 28 31  0  0  1  0  0  0  0  0999 V2000
  -55.5500  -41.8960  -63.1730 C   0  0  2  0  0  3  0  0  0  0  0  0
  -54.7730  -43.0700  -63.1440 N   0  0  0  0  0  0  0  0  0  0  0  0
  -53.3820  -43.0240  -63.4390 C   0  0  0  0  0  0  0  0  0  0  0  0
  -52.4840  -44.0400  -63.0610 C   0  0  0  0  0  0  0  0  0  0  0  0
  -53.0410  -45.4800  -61.9590 Br  0  0  0  0  0  0  0  0  0  0  0  0
  -51.1420  -44.0090  -63.4670 C   0  0  0  0  0  3  0  0  0  0  0  0
  -50.6770  -42.9380  -64.2380 C   0  0  0  0  0  3  0  0  0  0  0  0
  -51.5480  -41.9190  -64.6230 C   0  0  0  0  0  0  0  0  0  0  0  0
  -50.8600  -40.6070  -65.5110 Cl  0  0  0  0  0  0  0  0  0  0  0  0
  -52.8970  -41.9790  -64.2410 C   0  0  0  0  0  0  0  0  0  0  0  0
  -53.9080  -40.9950  -64.6710 C   0  0  0  0  0  0  0  0  0  0  0  0
  -53.8260  -40.4130  -65.7450 O   0  0  0  0  0  0  0  0  0  0  0  0
  -55.1000  -40.7790  -63.7860 C   0  0  2  0  0  3  0  0  0  0  0  0
  -55.0070  -43.6730  -62.3440 H   0  0  0  0  0  0  0  0  0  0  0  0
  -56.9070  -41.9300  -61.9730 S   0  0  2  0  0  0  0  0  0  0  0  0
  -56.5150  -43.0100  -61.0020 O   0  0  0  0  0  0  0  0  0  0  0  0
  -58.4330  -42.4700  -62.7980 C   0  0  0  0  0  2  0  0  0  0  0  0
  -58.9710  -42.6030  -67.8890 C   0  0  0  0  0  1  0  0  0  0  0  0
  -58.6820  -42.7280  -66.4480 C   0  0  0  0  0  0  0  0  0  0  0  0
  -59.0260  -42.0110  -65.3270 C   0  0  0  0  0  3  0  0  0  0  0  0
  -58.4800  -42.7480  -64.2520 C   0  0  0  0  0  0  0  0  0  0  0  0
  -57.7890  -43.8070  -64.7100 N   0  0  0  0  0  0  0  0  0  0  0  0
  -57.9200  -43.7900  -66.0830 O   0  0  0  0  0  0  0  0  0  0  0  0
  -55.4620  -39.3430  -63.6090 C   0  0  0  0  0  0  0  0  0  0  0  0
  -56.5960  -38.9580  -63.8360 O   0  0  0  0  0  0  0  0  0  0  0  0
  -54.4370  -38.4070  -63.1100 C   0  0  0  0  0  3  0  0  0  0  0  0
  -54.7580  -36.9370  -63.0200 C   0  0  0  0  0  2  0  0  0  0  0  0
  -53.7640  -37.4190  -64.0330 C   0  0  0  0  0  2  0  0  0  0  0  0
  1  2  1  0  0  0  0
  1 15  1  1  0  0  0
  2 14  1  0  0  0  0
  3  2  1  0  0  0  0
  3  4  1  0  0  0  0
  4  5  1  0  0  0  0
  6  4  2  0  0  0  0
  7  6  1  0  0  0  0
  8 10  1  0  0  0  0
  8  7  2  0  0  0  0
  9  8  1  0  0  0  0
 10  3  2  0  0  0  0
 11 10  1  0  0  0  0
 11 13  1  0  0  0  0
 12 11  2  0  0  0  0
 13 24  1  1  0  0  0
 13  1  1  0  0  0  0
 15 16  2  1  0  0  0
 17 15  1  0  0  0  0
 18 19  1  0  0  0  0
 19 23  1  0  0  0  0
 19 20  2  0  0  0  0
 20 21  1  0  0  0  0
 21 17  1  0  0  0  0
 22 21  2  0  0  0  0
 23 22  1  0  0  0  0
 24 26  1  0  0  0  0
 25 24  2  0  0  0  0
 26 27  1  0  0  0  0
 28 26  1  0  0  0  0
 28 27  1  0  0  0  0
M  END
>  <MODEL>
1

>  <REMARK>
 VINA RESULT:    -7.179      0.000      0.000
 INTER + INTRA:         -10.275
 INTER:                  -9.278
 INTRA:                  -0.998
 UNBOUND:                -0.998
  Name = 
  6 active torsions:
  status: ('A' for Active; 'I' for Inactive)
    1  A    between atoms: C_1  and  C_2
    2  A    between atoms: C_4  and  C_5
    3  A    between atoms: C_5  and  S_6
    4  A    between atoms: S_6  and  C_8
    5  A    between atoms: C_20  and  C_21
    6  A    between atoms: C_21  and  C_23
                            x       y       z     vdW  Elec       q    Type
                         _______ _______ _______ _____ _____    ______ ____

>  <TORSDO>
F 5

$$$$
