REMARK VINA RESULT:    -6.594      3.386      5.824
REMARK INTER + INTRA:          -9.429
REMARK INTER:                  -8.319
REMARK INTRA:                  -1.109
REMARK UNBOUND:                -0.908
REMARK  Name = 
REMARK  6 active torsions:
REMARK  status: ('A' for Active; 'I' for Inactive)
REMARK    1  A    between atoms: C_1  and  C_2
REMARK    2  A    between atoms: C_4  and  C_5
REMARK    3  A    between atoms: C_5  and  S_6
REMARK    4  A    between atoms: S_6  and  C_8
REMARK    5  A    between atoms: C_20  and  C_21
REMARK    6  A    between atoms: C_21  and  C_23
REMARK                            x       y       z     vdW  Elec       q    Type
REMARK                         _______ _______ _______ _____ _____    ______ ____
ROOT
ATOM      1  C   UNL     1     -55.965 -41.833 -77.355  0.00  0.00    +0.000 A 
ATOM      2  N   UNL     1     -55.064 -40.771 -77.146  0.00  0.00    +0.000 N 
ATOM      3  C   UNL     1     -53.737 -41.025 -76.703  0.00  0.00    +0.000 A 
ATOM      4  C   UNL     1     -52.689 -40.096 -76.845  0.00  0.00    +0.000 A 
ATOM      5 BR   UNL     1     -52.934 -38.483 -77.812  0.00  0.00    +0.000 Br
ATOM      6  C   UNL     1     -51.422 -40.342 -76.296  0.00  0.00    +0.000 A 
ATOM      7  C   UNL     1     -51.183 -41.543 -75.618  0.00  0.00    +0.000 A 
ATOM      8  C   UNL     1     -52.205 -42.480 -75.467  0.00  0.00    +0.000 A 
ATOM      9 CL   UNL     1     -51.788 -43.959 -74.679  0.00  0.00    +0.000 Cl
ATOM     10  C   UNL     1     -53.478 -42.206 -75.990  0.00  0.00    +0.000 A 
ATOM     11  C   UNL     1     -54.641 -43.096 -75.805  0.00  0.00    +0.000 A 
ATOM     12  O   UNL     1     -54.763 -43.800 -74.811  0.00  0.00    +0.000 OA
ATOM     13  C   UNL     1     -55.725 -43.060 -76.841  0.00  0.00    +0.000 A 
ATOM     14  H   UNL     1     -55.124 -40.058 -77.886  0.00  0.00    +0.000 HD
ENDROOT
BRANCH   1  15
ATOM     15  S   UNL     1     -57.145 -41.493 -78.688  0.00  0.00    +0.000 S 
ATOM     16  O   UNL     1     -58.377 -42.260 -78.295  0.00  0.00    +0.000 OA
BRANCH  15  17
ATOM     17  C   UNL     1     -56.529 -42.211 -80.239  0.00  0.00    +0.000 C 
BRANCH  17  21
ATOM     18  C   UNL     1     -51.570 -42.653 -81.434  0.00  0.00    +0.000 C 
ATOM     19  C   UNL     1     -52.994 -42.347 -81.206  0.00  0.00    +0.000 A 
ATOM     20  C   UNL     1     -54.037 -42.998 -80.589  0.00  0.00    +0.000 A 
ATOM     21  C   UNL     1     -55.113 -42.085 -80.653  0.00  0.00    +0.000 A 
ATOM     22  N   UNL     1     -54.755 -40.981 -81.331  0.00  0.00    +0.000 NA
ATOM     23  O   UNL     1     -53.429 -41.149 -81.673  0.00  0.00    +0.000 OA
ENDBRANCH  17  21
ENDBRANCH  15  17
ENDBRANCH   1  15
BRANCH  13  24
ATOM     24  C   UNL     1     -56.221 -44.409 -77.237  0.00  0.00    +0.000 C 
ATOM     25  O   UNL     1     -57.367 -44.744 -76.993  0.00  0.00    +0.000 OA
BRANCH  24  26
ATOM     26  C   UNL     1     -55.315 -45.311 -77.972  0.00  0.00    +0.000 C 
ATOM     27  C   UNL     1     -55.802 -46.677 -78.383  0.00  0.00    +0.000 C 
ATOM     28  C   UNL     1     -54.750 -46.552 -77.323  0.00  0.00    +0.000 C 
ENDBRANCH  24  26
ENDBRANCH  13  24
TORSDOF 5
