=
 OpenBabel09152517473D

 26 28  0  0  0  0  0  0  0  0999 V2000
  -55.9270  -42.5060  -62.7500 C   0  0  0  0  0  0  0  0  0  0  0  0
  -55.6130  -41.3370  -63.3510 C   0  0  0  0  0  0  0  0  0  0  0  0
  -54.3860  -41.0890  -63.9360 N   0  0  0  0  0  0  0  0  0  0  0  0
  -53.3090  -41.9900  -63.8650 C   0  0  0  0  0  0  0  0  0  0  0  0
  -52.0870  -41.7010  -64.5010 C   0  0  0  0  0  0  0  0  0  0  0  0
  -51.8280  -40.0600  -65.4240 Br  0  0  0  0  0  0  0  0  0  0  0  0
  -51.0330  -42.6100  -64.4780 C   0  0  0  0  0  3  0  0  0  0  0  0
  -51.1910  -43.8260  -63.8180 C   0  0  0  0  0  3  0  0  0  0  0  0
  -52.4050  -44.1490  -63.2010 C   0  0  0  0  0  0  0  0  0  0  0  0
  -52.4460  -45.6910  -62.4210 Cl  0  0  0  0  0  0  0  0  0  0  0  0
  -53.4820  -43.2400  -63.2460 C   0  0  0  0  0  0  0  0  0  0  0  0
  -54.8150  -43.5160  -62.6390 C   0  0  0  0  0  0  0  0  0  0  0  0
  -55.0000  -44.5510  -62.0110 O   0  0  0  0  0  0  0  0  0  0  0  0
  -54.1340  -40.1060  -64.0370 H   0  0  0  0  0  0  0  0  0  0  0  0
  -58.3210  -43.4650  -63.0600 C   0  0  0  0  0  1  0  0  0  0  0  0
  -57.2760  -42.8330  -62.1670 C   0  0  0  0  0  0  0  0  0  0  0  0
  -57.5590  -42.5710  -60.9980 O   0  0  0  0  0  0  0  0  0  0  0  0
  -56.7460  -39.9090  -63.2970 S   0  0  1  0  0  0  0  0  0  0  0  0
  -56.4720  -39.2980  -61.9490 O   0  0  0  0  0  0  0  0  0  0  0  0
  -55.9200  -38.8270  -64.5180 C   0  0  0  0  0  2  0  0  0  0  0  0
  -55.2340  -37.6760  -63.8600 C   0  0  0  0  0  0  0  0  0  0  0  0
  -55.7240  -36.3670  -63.6080 C   0  0  0  0  0  3  0  0  0  0  0  0
  -54.7100  -35.7440  -62.9230 C   0  0  0  0  0  0  0  0  0  0  0  0
  -54.5220  -34.3970  -62.3510 C   0  0  0  0  0  1  0  0  0  0  0  0
  -53.6800  -36.6170  -62.7660 O   0  0  0  0  0  0  0  0  0  0  0  0
  -54.0070  -37.8310  -63.3470 N   0  0  0  0  0  0  0  0  0  0  0  0
  1 12  1  0  0  0  0
  1 16  1  0  0  0  0
  2 18  1  0  0  0  0
  2  1  2  0  0  0  0
  3  4  1  0  0  0  0
  3  2  1  0  0  0  0
  4 11  1  0  0  0  0
  5  7  1  0  0  0  0
  5  4  2  0  0  0  0
  6  5  1  0  0  0  0
  7  8  2  0  0  0  0
  8  9  1  0  0  0  0
  9 10  1  0  0  0  0
 11  9  2  0  0  0  0
 11 12  1  0  0  0  0
 12 13  2  0  0  0  0
 14  3  1  0  0  0  0
 15 16  1  0  0  0  0
 16 17  2  0  0  0  0
 18 19  2  1  0  0  0
 20 21  1  0  0  0  0
 20 18  1  0  0  0  0
 21 22  1  0  0  0  0
 21 26  2  0  0  0  0
 22 23  2  0  0  0  0
 23 25  1  0  0  0  0
 23 24  1  0  0  0  0
 26 25  1  0  0  0  0
M  END
>  <MODEL>
1

>  <REMARK>
 VINA RESULT:    -6.897      0.000      0.000
 INTER + INTRA:          -9.481
 INTER:                  -8.510
 INTRA:                  -0.971
 UNBOUND:                -0.971
  Name = 
  6 active torsions:
  status: ('A' for Active; 'I' for Inactive)
    1  A    between atoms: C_1  and  C_2
    2  A    between atoms: C_2  and  C_4
    3  A    between atoms: C_5  and  S_6
    4  A    between atoms: S_6  and  C_8
    5  A    between atoms: C_8  and  C_9
    6  A    between atoms: C_11  and  C_12
                            x       y       z     vdW  Elec       q    Type
                         _______ _______ _______ _____ _____    ______ ____

>  <TORSDO>
F 4

$$$$
