REMARK VINA RESULT:    -6.484     13.001     15.831
REMARK INTER + INTRA:          -9.377
REMARK INTER:                  -8.595
REMARK INTRA:                  -0.782
REMARK UNBOUND:                -0.998
REMARK  Name = 
REMARK  6 active torsions:
REMARK  status: ('A' for Active; 'I' for Inactive)
REMARK    1  A    between atoms: C_1  and  C_2
REMARK    2  A    between atoms: C_4  and  C_5
REMARK    3  A    between atoms: C_5  and  S_6
REMARK    4  A    between atoms: S_6  and  C_8
REMARK    5  A    between atoms: C_20  and  C_21
REMARK    6  A    between atoms: C_21  and  C_23
REMARK                            x       y       z     vdW  Elec       q    Type
REMARK                         _______ _______ _______ _____ _____    ______ ____
ROOT
ATOM      1  C   UNL     1     -54.707 -42.708 -78.724  0.00  0.00    +0.000 A 
ATOM      2  N   UNL     1     -54.384 -42.586 -80.089  0.00  0.00    +0.000 N 
ATOM      3  C   UNL     1     -55.290 -41.968 -80.995  0.00  0.00    +0.000 A 
ATOM      4  C   UNL     1     -54.898 -41.465 -82.249  0.00  0.00    +0.000 A 
ATOM      5 BR   UNL     1     -53.070 -41.414 -82.756  0.00  0.00    +0.000 Br
ATOM      6  C   UNL     1     -55.841 -40.962 -83.156  0.00  0.00    +0.000 A 
ATOM      7  C   UNL     1     -57.195 -40.933 -82.802  0.00  0.00    +0.000 A 
ATOM      8  C   UNL     1     -57.607 -41.424 -81.563  0.00  0.00    +0.000 A 
ATOM      9 CL   UNL     1     -59.287 -41.277 -81.193  0.00  0.00    +0.000 Cl
ATOM     10  C   UNL     1     -56.657 -41.957 -80.679  0.00  0.00    +0.000 A 
ATOM     11  C   UNL     1     -57.008 -42.576 -79.386  0.00  0.00    +0.000 A 
ATOM     12  O   UNL     1     -58.077 -43.149 -79.214  0.00  0.00    +0.000 OA
ATOM     13  C   UNL     1     -55.979 -42.556 -78.294  0.00  0.00    +0.000 A 
ATOM     14  H   UNL     1     -53.402 -42.313 -80.234  0.00  0.00    +0.000 HD
ENDROOT
BRANCH   1  15
ATOM     15  S   UNL     1     -53.248 -42.629 -77.653  0.00  0.00    +0.000 S 
ATOM     16  O   UNL     1     -53.583 -43.541 -76.504  0.00  0.00    +0.000 OA
BRANCH  15  17
ATOM     17  C   UNL     1     -53.078 -40.949 -76.982  0.00  0.00    +0.000 C 
BRANCH  17  21
ATOM     18  C   UNL     1     -49.054 -38.465 -75.019  0.00  0.00    +0.000 C 
ATOM     19  C   UNL     1     -50.132 -39.354 -75.491  0.00  0.00    +0.000 A 
ATOM     20  C   UNL     1     -51.309 -39.167 -76.178  0.00  0.00    +0.000 A 
ATOM     21  C   UNL     1     -51.813 -40.471 -76.379  0.00  0.00    +0.000 A 
ATOM     22  N   UNL     1     -51.020 -41.380 -75.785  0.00  0.00    +0.000 NA
ATOM     23  O   UNL     1     -49.971 -40.676 -75.233  0.00  0.00    +0.000 OA
ENDBRANCH  17  21
ENDBRANCH  15  17
ENDBRANCH   1  15
BRANCH  13  24
ATOM     24  C   UNL     1     -56.532 -42.200 -76.956  0.00  0.00    +0.000 C 
ATOM     25  O   UNL     1     -56.809 -43.070 -76.149  0.00  0.00    +0.000 OA
BRANCH  24  26
ATOM     26  C   UNL     1     -56.693 -40.775 -76.609  0.00  0.00    +0.000 C 
ATOM     27  C   UNL     1     -57.735 -40.371 -75.599  0.00  0.00    +0.000 C 
ATOM     28  C   UNL     1     -57.914 -39.998 -77.039  0.00  0.00    +0.000 C 
ENDBRANCH  24  26
ENDBRANCH  13  24
TORSDOF 5
