REMARK VINA RESULT:    -6.656     13.595     15.843
REMARK INTER + INTRA:          -9.541
REMARK INTER:                  -9.111
REMARK INTRA:                  -0.430
REMARK UNBOUND:                -0.940
REMARK  Name = 
REMARK  6 active torsions:
REMARK  status: ('A' for Active; 'I' for Inactive)
REMARK    1  A    between atoms: C_1  and  C_2
REMARK    2  A    between atoms: C_4  and  C_5
REMARK    3  A    between atoms: C_5  and  S_6
REMARK    4  A    between atoms: S_6  and  C_8
REMARK    5  A    between atoms: C_20  and  C_21
REMARK    6  A    between atoms: C_21  and  C_23
REMARK                            x       y       z     vdW  Elec       q    Type
REMARK                         _______ _______ _______ _____ _____    ______ ____
ROOT
ATOM      1  C   UNL     1     -53.574 -42.201 -78.503  0.00  0.00    +0.000 A 
ATOM      2  N   UNL     1     -54.790 -42.893 -78.662  0.00  0.00    +0.000 N 
ATOM      3  C   UNL     1     -55.756 -42.908 -77.618  0.00  0.00    +0.000 A 
ATOM      4  C   UNL     1     -57.110 -43.226 -77.830  0.00  0.00    +0.000 A 
ATOM      5 BR   UNL     1     -57.792 -43.487 -79.581  0.00  0.00    +0.000 Br
ATOM      6  C   UNL     1     -58.006 -43.337 -76.757  0.00  0.00    +0.000 A 
ATOM      7  C   UNL     1     -57.556 -43.102 -75.453  0.00  0.00    +0.000 A 
ATOM      8  C   UNL     1     -56.218 -42.783 -75.218  0.00  0.00    +0.000 A 
ATOM      9 CL   UNL     1     -55.780 -42.440 -73.583  0.00  0.00    +0.000 Cl
ATOM     10  C   UNL     1     -55.324 -42.710 -76.297  0.00  0.00    +0.000 A 
ATOM     11  C   UNL     1     -53.878 -42.464 -76.139  0.00  0.00    +0.000 A 
ATOM     12  O   UNL     1     -53.268 -42.827 -75.141  0.00  0.00    +0.000 OA
ATOM     13  C   UNL     1     -53.145 -41.821 -77.279  0.00  0.00    +0.000 A 
ATOM     14  H   UNL     1     -55.194 -42.759 -79.599  0.00  0.00    +0.000 HD
ENDROOT
BRANCH   1  15
ATOM     15  S   UNL     1     -52.949 -41.523 -80.063  0.00  0.00    +0.000 S 
ATOM     16  O   UNL     1     -54.031 -41.833 -81.060  0.00  0.00    +0.000 OA
BRANCH  15  17
ATOM     17  C   UNL     1     -51.464 -42.439 -80.570  0.00  0.00    +0.000 C 
BRANCH  17  21
ATOM     18  C   UNL     1     -50.069 -43.059 -85.457  0.00  0.00    +0.000 C 
ATOM     19  C   UNL     1     -50.545 -43.079 -84.062  0.00  0.00    +0.000 A 
ATOM     20  C   UNL     1     -50.459 -42.213 -82.998  0.00  0.00    +0.000 A 
ATOM     21  C   UNL     1     -51.225 -42.824 -81.980  0.00  0.00    +0.000 A 
ATOM     22  N   UNL     1     -51.684 -44.019 -82.388  0.00  0.00    +0.000 NA
ATOM     23  O   UNL     1     -51.258 -44.173 -83.691  0.00  0.00    +0.000 OA
ENDBRANCH  17  21
ENDBRANCH  15  17
ENDBRANCH   1  15
BRANCH  13  24
ATOM     24  C   UNL     1     -52.195 -40.754 -76.854  0.00  0.00    +0.000 C 
ATOM     25  O   UNL     1     -52.598 -39.633 -76.595  0.00  0.00    +0.000 OA
BRANCH  24  26
ATOM     26  C   UNL     1     -50.766 -41.091 -76.706  0.00  0.00    +0.000 C 
ATOM     27  C   UNL     1     -50.168 -41.195 -75.326  0.00  0.00    +0.000 C 
ATOM     28  C   UNL     1     -49.766 -40.066 -76.226  0.00  0.00    +0.000 C 
ENDBRANCH  24  26
ENDBRANCH  13  24
TORSDOF 5
