REMARK VINA RESULT:    -5.540     12.178     14.586
REMARK INTER + INTRA:          -8.029
REMARK INTER:                  -6.851
REMARK INTRA:                  -1.177
REMARK UNBOUND:                -0.869
REMARK  Name = 
REMARK  6 active torsions:
REMARK  status: ('A' for Active; 'I' for Inactive)
REMARK    1  A    between atoms: C_1  and  C_2
REMARK    2  A    between atoms: C_4  and  C_5
REMARK    3  A    between atoms: C_5  and  S_6
REMARK    4  A    between atoms: S_6  and  C_8
REMARK    5  A    between atoms: C_20  and  C_21
REMARK    6  A    between atoms: C_21  and  C_23
REMARK                            x       y       z     vdW  Elec       q    Type
REMARK                         _______ _______ _______ _____ _____    ______ ____
ROOT
ATOM      1  C   UNL     1     -56.931 -41.836 -78.931  0.00  0.00    +0.000 A 
ATOM      2  N   UNL     1     -55.954 -41.876 -79.944  0.00  0.00    +0.000 N 
ATOM      3  C   UNL     1     -54.571 -41.926 -79.614  0.00  0.00    +0.000 A 
ATOM      4  C   UNL     1     -53.581 -42.354 -80.518  0.00  0.00    +0.000 A 
ATOM      5 BR   UNL     1     -54.045 -43.075 -82.210  0.00  0.00    +0.000 Br
ATOM      6  C   UNL     1     -52.220 -42.283 -80.189  0.00  0.00    +0.000 A 
ATOM      7  C   UNL     1     -51.835 -41.806 -78.931  0.00  0.00    +0.000 A 
ATOM      8  C   UNL     1     -52.799 -41.378 -78.017  0.00  0.00    +0.000 A 
ATOM      9 CL   UNL     1     -52.227 -40.875 -76.468  0.00  0.00    +0.000 Cl
ATOM     10  C   UNL     1     -54.156 -41.420 -78.372  0.00  0.00    +0.000 A 
ATOM     11  C   UNL     1     -55.238 -40.911 -77.507  0.00  0.00    +0.000 A 
ATOM     12  O   UNL     1     -55.059 -39.982 -76.730  0.00  0.00    +0.000 OA
ATOM     13  C   UNL     1     -56.603 -41.514 -77.660  0.00  0.00    +0.000 A 
ATOM     14  H   UNL     1     -56.218 -42.504 -80.716  0.00  0.00    +0.000 HD
ENDROOT
BRANCH   1  15
ATOM     15  S   UNL     1     -58.468 -42.666 -79.413  0.00  0.00    +0.000 S 
ATOM     16  O   UNL     1     -59.544 -41.663 -79.098  0.00  0.00    +0.000 OA
BRANCH  15  17
ATOM     17  C   UNL     1     -58.740 -44.109 -78.344  0.00  0.00    +0.000 C 
BRANCH  17  21
ATOM     18  C   UNL     1     -55.412 -47.924 -77.578  0.00  0.00    +0.000 C 
ATOM     19  C   UNL     1     -56.439 -46.939 -77.965  0.00  0.00    +0.000 A 
ATOM     20  C   UNL     1     -56.907 -45.767 -77.422  0.00  0.00    +0.000 A 
ATOM     21  C   UNL     1     -57.837 -45.283 -78.369  0.00  0.00    +0.000 A 
ATOM     22  N   UNL     1     -57.969 -46.152 -79.387  0.00  0.00    +0.000 NA
ATOM     23  O   UNL     1     -57.091 -47.184 -79.130  0.00  0.00    +0.000 OA
ENDBRANCH  17  21
ENDBRANCH  15  17
ENDBRANCH   1  15
BRANCH  13  24
ATOM     24  C   UNL     1     -57.279 -41.805 -76.364  0.00  0.00    +0.000 C 
ATOM     25  O   UNL     1     -58.304 -41.224 -76.055  0.00  0.00    +0.000 OA
BRANCH  24  26
ATOM     26  C   UNL     1     -56.710 -42.844 -75.484  0.00  0.00    +0.000 C 
ATOM     27  C   UNL     1     -57.275 -43.032 -74.099  0.00  0.00    +0.000 C 
ATOM     28  C   UNL     1     -55.893 -42.477 -74.268  0.00  0.00    +0.000 C 
ENDBRANCH  24  26
ENDBRANCH  13  24
TORSDOF 5
