REMARK VINA RESULT:    -5.687      3.247      4.874
REMARK INTER + INTRA:          -8.248
REMARK INTER:                  -7.109
REMARK INTRA:                  -1.139
REMARK UNBOUND:                -0.899
REMARK  Name = 
REMARK  6 active torsions:
REMARK  status: ('A' for Active; 'I' for Inactive)
REMARK    1  A    between atoms: C_1  and  C_2
REMARK    2  A    between atoms: C_4  and  C_5
REMARK    3  A    between atoms: C_5  and  S_6
REMARK    4  A    between atoms: S_6  and  C_8
REMARK    5  A    between atoms: C_20  and  C_21
REMARK    6  A    between atoms: C_21  and  C_23
REMARK                            x       y       z     vdW  Elec       q    Type
REMARK                         _______ _______ _______ _____ _____    ______ ____
ROOT
ATOM      1  C   UNL     1     -56.395 -41.651 -77.279  0.00  0.00    +0.000 A 
ATOM      2  N   UNL     1     -55.432 -40.626 -77.198  0.00  0.00    +0.000 N 
ATOM      3  C   UNL     1     -54.088 -40.922 -76.841  0.00  0.00    +0.000 A 
ATOM      4  C   UNL     1     -53.013 -40.056 -77.112  0.00  0.00    +0.000 A 
ATOM      5 BR   UNL     1     -53.258 -38.485 -78.147  0.00  0.00    +0.000 Br
ATOM      6  C   UNL     1     -51.720 -40.335 -76.646  0.00  0.00    +0.000 A 
ATOM      7  C   UNL     1     -51.485 -41.510 -75.922  0.00  0.00    +0.000 A 
ATOM      8  C   UNL     1     -52.534 -42.385 -75.643  0.00  0.00    +0.000 A 
ATOM      9 CL   UNL     1     -52.126 -43.840 -74.806  0.00  0.00    +0.000 Cl
ATOM     10  C   UNL     1     -53.830 -42.076 -76.084  0.00  0.00    +0.000 A 
ATOM     11  C   UNL     1     -55.014 -42.896 -75.764  0.00  0.00    +0.000 A 
ATOM     12  O   UNL     1     -55.091 -43.540 -74.725  0.00  0.00    +0.000 OA
ATOM     13  C   UNL     1     -56.173 -42.859 -76.717  0.00  0.00    +0.000 A 
ATOM     14  H   UNL     1     -55.517 -39.950 -77.969  0.00  0.00    +0.000 HD
ENDROOT
BRANCH   1  15
ATOM     15  S   UNL     1     -57.656 -41.323 -78.538  0.00  0.00    +0.000 S 
ATOM     16  O   UNL     1     -58.957 -41.630 -77.846  0.00  0.00    +0.000 OA
BRANCH  15  17
ATOM     17  C   UNL     1     -57.473 -42.507 -79.903  0.00  0.00    +0.000 C 
BRANCH  17  21
ATOM     18  C   UNL     1     -61.101 -45.990 -80.865  0.00  0.00    +0.000 C 
ATOM     19  C   UNL     1     -60.177 -44.853 -80.701  0.00  0.00    +0.000 A 
ATOM     20  C   UNL     1     -59.016 -44.644 -79.995  0.00  0.00    +0.000 A 
ATOM     21  C   UNL     1     -58.602 -43.346 -80.368  0.00  0.00    +0.000 A 
ATOM     22  N   UNL     1     -59.501 -42.784 -81.194  0.00  0.00    +0.000 NA
ATOM     23  O   UNL     1     -60.483 -43.730 -81.400  0.00  0.00    +0.000 OA
ENDBRANCH  17  21
ENDBRANCH  15  17
ENDBRANCH   1  15
BRANCH  13  24
ATOM     24  C   UNL     1     -56.758 -44.201 -76.999  0.00  0.00    +0.000 C 
ATOM     25  O   UNL     1     -57.904 -44.458 -76.670  0.00  0.00    +0.000 OA
BRANCH  24  26
ATOM     26  C   UNL     1     -55.944 -45.194 -77.725  0.00  0.00    +0.000 C 
ATOM     27  C   UNL     1     -56.424 -46.619 -77.819  0.00  0.00    +0.000 C 
ATOM     28  C   UNL     1     -55.217 -46.296 -76.993  0.00  0.00    +0.000 C 
ENDBRANCH  24  26
ENDBRANCH  13  24
TORSDOF 5
