REMARK VINA RESULT:    -6.268      3.294      5.969
REMARK INTER + INTRA:          -8.699
REMARK INTER:                  -7.897
REMARK INTRA:                  -0.802
REMARK UNBOUND:                -0.965
REMARK  Name = 
REMARK  6 active torsions:
REMARK  status: ('A' for Active; 'I' for Inactive)
REMARK    1  A    between atoms: C_1  and  C_2
REMARK    2  A    between atoms: C_2  and  C_4
REMARK    3  A    between atoms: C_5  and  S_6
REMARK    4  A    between atoms: S_6  and  C_8
REMARK    5  A    between atoms: C_8  and  C_9
REMARK    6  A    between atoms: C_11  and  C_12
REMARK                            x       y       z     vdW  Elec       q    Type
REMARK                         _______ _______ _______ _____ _____    ______ ____
ROOT
ATOM      1  C   UNL     1     -57.276 -40.610 -62.342  0.00  0.00    +0.000 A 
ATOM      2  C   UNL     1     -56.379 -41.552 -62.718  0.00  0.00    +0.000 A 
ATOM      3  N   UNL     1     -55.171 -41.255 -63.313  0.00  0.00    +0.000 N 
ATOM      4  C   UNL     1     -54.815 -39.954 -63.707  0.00  0.00    +0.000 A 
ATOM      5  C   UNL     1     -53.570 -39.704 -64.318  0.00  0.00    +0.000 A 
ATOM      6 BR   UNL     1     -52.361 -41.123 -64.690  0.00  0.00    +0.000 Br
ATOM      7  C   UNL     1     -53.187 -38.410 -64.665  0.00  0.00    +0.000 A 
ATOM      8  C   UNL     1     -54.045 -37.347 -64.401  0.00  0.00    +0.000 A 
ATOM      9  C   UNL     1     -55.276 -37.567 -63.774  0.00  0.00    +0.000 A 
ATOM     10 CL   UNL     1     -56.234 -36.148 -63.525  0.00  0.00    +0.000 Cl
ATOM     11  C   UNL     1     -55.657 -38.872 -63.401  0.00  0.00    +0.000 A 
ATOM     12  C   UNL     1     -56.934 -39.187 -62.705  0.00  0.00    +0.000 A 
ATOM     13  O   UNL     1     -57.731 -38.288 -62.461  0.00  0.00    +0.000 OA
ATOM     14  H   UNL     1     -54.746 -42.010 -63.853  0.00  0.00    +0.000 HD
ENDROOT
BRANCH   1  16
ATOM     15  C   UNL     1     -59.825 -41.117 -62.465  0.00  0.00    +0.000 C 
ATOM     16  C   UNL     1     -58.576 -40.893 -61.639  0.00  0.00    +0.000 C 
ATOM     17  O   UNL     1     -58.658 -40.922 -60.414  0.00  0.00    +0.000 OA
ENDBRANCH   1  16
BRANCH   2  18
ATOM     18  S   UNL     1     -56.774 -43.335 -62.609  0.00  0.00    +0.000 S 
ATOM     19  O   UNL     1     -57.207 -43.680 -64.008  0.00  0.00    +0.000 OA
BRANCH  18  20
ATOM     20  C   UNL     1     -55.082 -44.003 -62.425  0.00  0.00    +0.000 C 
BRANCH  20  21
ATOM     21  C   UNL     1     -54.687 -44.150 -60.993  0.00  0.00    +0.000 A 
ATOM     22  C   UNL     1     -54.906 -43.267 -59.903  0.00  0.00    +0.000 A 
ATOM     23  C   UNL     1     -54.415 -43.936 -58.809  0.00  0.00    +0.000 A 
ATOM     24  C   UNL     1     -54.318 -43.634 -57.367  0.00  0.00    +0.000 C 
ATOM     25  O   UNL     1     -53.935 -45.144 -59.206  0.00  0.00    +0.000 OA
ATOM     26  N   UNL     1     -54.109 -45.285 -60.573  0.00  0.00    +0.000 NA
ENDBRANCH  20  21
ENDBRANCH  18  20
ENDBRANCH   2  18
TORSDOF 4
