REMARK VINA RESULT:    -5.798      3.908      6.722
REMARK INTER + INTRA:          -8.366
REMARK INTER:                  -7.334
REMARK INTRA:                  -1.032
REMARK UNBOUND:                -0.874
REMARK  Name = 
REMARK  8 active torsions:
REMARK  status: ('A' for Active; 'I' for Inactive)
REMARK    1  A    between atoms: C_1  and  C_2
REMARK    2  A    between atoms: C_4  and  C_5
REMARK    3  A    between atoms: C_5  and  S_6
REMARK    4  A    between atoms: S_6  and  C_8
REMARK    5  A    between atoms: C_20  and  C_21
REMARK    6  A    between atoms: C_21  and  C_23
REMARK    7  A    between atoms: C_23  and  C_24
REMARK    8  A    between atoms: C_23  and  C_25
REMARK                            x       y       z     vdW  Elec       q    Type
REMARK                         _______ _______ _______ _____ _____    ______ ____
ROOT
ATOM      1  C   UNL     1     -55.033 -43.347 -77.169  0.00  0.00    +0.000 A 
ATOM      2  N   UNL     1     -56.393 -43.613 -77.042  0.00  0.00    +0.000 N 
ATOM      3  C   UNL     1     -57.177 -42.996 -76.049  0.00  0.00    +0.000 A 
ATOM      4  C   UNL     1     -58.579 -42.911 -76.146  0.00  0.00    +0.000 A 
ATOM      5 BR   UNL     1     -59.485 -43.484 -77.710  0.00  0.00    +0.000 Br
ATOM      6  C   UNL     1     -59.339 -42.362 -75.109  0.00  0.00    +0.000 A 
ATOM      7  C   UNL     1     -58.710 -41.886 -73.963  0.00  0.00    +0.000 A 
ATOM      8  C   UNL     1     -57.309 -41.955 -73.849  0.00  0.00    +0.000 A 
ATOM      9 CL   UNL     1     -56.638 -41.268 -72.414  0.00  0.00    +0.000 Cl
ATOM     10  C   UNL     1     -56.543 -42.515 -74.892  0.00  0.00    +0.000 A 
ATOM     11  C   UNL     1     -55.065 -42.662 -74.854  0.00  0.00    +0.000 A 
ATOM     12  O   UNL     1     -54.478 -42.708 -73.777  0.00  0.00    +0.000 OA
ATOM     13  C   UNL     1     -54.310 -42.777 -76.176  0.00  0.00    +0.000 A 
ATOM     14  H   UNL     1     -56.866 -43.806 -77.936  0.00  0.00    +0.000 HD
ENDROOT
BRANCH   1  15
ATOM     15  S   UNL     1     -54.444 -43.657 -78.877  0.00  0.00    +0.000 S 
ATOM     16  O   UNL     1     -54.505 -42.303 -79.530  0.00  0.00    +0.000 OA
BRANCH  15  17
ATOM     17  C   UNL     1     -55.759 -44.702 -79.590  0.00  0.00    +0.000 C 
BRANCH  17  21
ATOM     18  C   UNL     1     -54.980 -49.820 -79.553  0.00  0.00    +0.000 C 
ATOM     19  C   UNL     1     -55.249 -48.378 -79.362  0.00  0.00    +0.000 A 
ATOM     20  C   UNL     1     -55.109 -47.250 -80.139  0.00  0.00    +0.000 A 
ATOM     21  C   UNL     1     -55.596 -46.181 -79.331  0.00  0.00    +0.000 A 
ATOM     22  N   UNL     1     -55.981 -46.655 -78.134  0.00  0.00    +0.000 NA
ATOM     23  O   UNL     1     -55.767 -48.020 -78.160  0.00  0.00    +0.000 OA
ENDBRANCH  17  21
ENDBRANCH  15  17
ENDBRANCH   1  15
BRANCH  13  24
ATOM     24  C   UNL     1     -52.906 -42.217 -76.207  0.00  0.00    +0.000 C 
ATOM     25  O   UNL     1     -51.999 -42.785 -75.600  0.00  0.00    +0.000 OA
BRANCH  24  26
ATOM     26  C   UNL     1     -52.613 -40.905 -76.937  0.00  0.00    +0.000 C 
ATOM     27  C   UNL     1     -53.849 -40.012 -77.013  0.00  0.00    +0.000 C 
ATOM     28  C   UNL     1     -51.447 -40.144 -76.301  0.00  0.00    +0.000 C 
ENDBRANCH  24  26
ENDBRANCH  13  24
TORSDOF 5
