REMARK  Name = 
REMARK  6 active torsions:
REMARK  status: ('A' for Active; 'I' for Inactive)
REMARK    1  A    between atoms: C_1  and  C_2
REMARK    2  A    between atoms: C_4  and  C_5
REMARK    3  A    between atoms: C_5  and  S_6
REMARK    4  A    between atoms: S_6  and  C_8
REMARK    5  A    between atoms: C_20  and  C_21
REMARK    6  A    between atoms: C_21  and  C_23
REMARK                            x       y       z     vdW  Elec       q    Type
REMARK                         _______ _______ _______ _____ _____    ______ ____
ROOT
ATOM      1  C   UNL     1      -3.696  -4.199   0.121  0.00  0.00    +0.000 A 
ATOM      2  N   UNL     1      -3.521  -5.560   0.438  0.00  0.00    +0.000 N 
ATOM      3  C   UNL     1      -4.579  -6.490   0.244  0.00  0.00    +0.000 A 
ATOM      4  C   UNL     1      -4.374  -7.880   0.161  0.00  0.00    +0.000 A 
ATOM      5 BR   UNL     1      -2.624  -8.611   0.123  0.00  0.00    +0.000 Br
ATOM      6  C   UNL     1      -5.455  -8.769   0.080  0.00  0.00    +0.000 A 
ATOM      7  C   UNL     1      -6.762  -8.269   0.053  0.00  0.00    +0.000 A 
ATOM      8  C   UNL     1      -6.990  -6.895   0.132  0.00  0.00    +0.000 A 
ATOM      9 CL   UNL     1      -8.633  -6.376   0.018  0.00  0.00    +0.000 Cl
ATOM     10  C   UNL     1      -5.901  -6.018   0.249  0.00  0.00    +0.000 A 
ATOM     11  C   UNL     1      -6.047  -4.560   0.424  0.00  0.00    +0.000 A 
ATOM     12  O   UNL     1      -7.013  -4.073   0.998  0.00  0.00    +0.000 OA
ATOM     13  C   UNL     1      -4.931  -3.679  -0.054  0.00  0.00    +0.000 A 
ATOM     14  H   UNL     1      -2.600  -5.913   0.144  0.00  0.00    +0.000 HD
ENDROOT
BRANCH   1  15
ATOM     15  S   UNL     1      -2.164  -3.413  -0.444  0.00  0.00    +0.000 S 
ATOM     16  O   UNL     1      -1.138  -4.511  -0.374  0.00  0.00    +0.000 OA
BRANCH  15  17
ATOM     17  C   UNL     1      -1.668  -2.129   0.742  0.00  0.00    +0.000 C 
BRANCH  17  21
ATOM     18  C   UNL     1      -1.464  -3.722   5.604  0.00  0.00    +0.000 C 
ATOM     19  C   UNL     1      -1.549  -3.068   4.285  0.00  0.00    +0.000 A 
ATOM     20  C   UNL     1      -1.400  -3.490   2.985  0.00  0.00    +0.000 A 
ATOM     21  C   UNL     1      -1.714  -2.355   2.205  0.00  0.00    +0.000 A 
ATOM     22  N   UNL     1      -1.967  -1.296   2.994  0.00  0.00    +0.000 NA
ATOM     23  O   UNL     1      -1.864  -1.748   4.293  0.00  0.00    +0.000 OA
ENDBRANCH  17  21
ENDBRANCH  15  17
ENDBRANCH   1  15
BRANCH  13  24
ATOM     24  C   UNL     1      -5.396  -2.469  -0.790  0.00  0.00    +0.000 C 
ATOM     25  O   UNL     1      -6.255  -2.559  -1.650  0.00  0.00    +0.000 OA
BRANCH  24  26
ATOM     26  C   UNL     1      -4.833  -1.155  -0.426  0.00  0.00    +0.000 C 
ATOM     27  C   UNL     1      -5.489  -0.343   0.661  0.00  0.00    +0.000 C 
ATOM     28  C   UNL     1      -5.558   0.127  -0.760  0.00  0.00    +0.000 C 
ENDBRANCH  24  26
ENDBRANCH  13  24
TORSDOF 5
