REMARK VINA RESULT:    -5.039     16.865     19.322
REMARK INTER + INTRA:          -7.298
REMARK INTER:                  -6.289
REMARK INTRA:                  -1.009
REMARK UNBOUND:                -1.082
REMARK  Name = 
REMARK  6 active torsions:
REMARK  status: ('A' for Active; 'I' for Inactive)
REMARK    1  A    between atoms: C_1  and  C_2
REMARK    2  A    between atoms: C_2  and  C_4
REMARK    3  A    between atoms: C_5  and  S_6
REMARK    4  A    between atoms: S_6  and  C_8
REMARK    5  A    between atoms: C_8  and  C_9
REMARK    6  A    between atoms: C_11  and  C_12
REMARK                            x       y       z     vdW  Elec       q    Type
REMARK                         _______ _______ _______ _____ _____    ______ ____
ROOT
ATOM      1  C   UNL     1     -67.676 -49.480 -55.568  0.00  0.00    +0.000 A 
ATOM      2  C   UNL     1     -68.436 -50.592 -55.465  0.00  0.00    +0.000 A 
ATOM      3  N   UNL     1     -68.174 -51.614 -54.573  0.00  0.00    +0.000 N 
ATOM      4  C   UNL     1     -67.008 -51.662 -53.793  0.00  0.00    +0.000 A 
ATOM      5  C   UNL     1     -66.763 -52.748 -52.932  0.00  0.00    +0.000 A 
ATOM      6 BR   UNL     1     -67.956 -54.227 -52.861  0.00  0.00    +0.000 Br
ATOM      7  C   UNL     1     -65.637 -52.777 -52.115  0.00  0.00    +0.000 A 
ATOM      8  C   UNL     1     -64.743 -51.711 -52.140  0.00  0.00    +0.000 A 
ATOM      9  C   UNL     1     -64.976 -50.607 -52.971  0.00  0.00    +0.000 A 
ATOM     10 CL   UNL     1     -63.772 -49.368 -52.898  0.00  0.00    +0.000 Cl
ATOM     11  C   UNL     1     -66.123 -50.571 -53.790  0.00  0.00    +0.000 A 
ATOM     12  C   UNL     1     -66.443 -49.435 -54.699  0.00  0.00    +0.000 A 
ATOM     13  O   UNL     1     -65.684 -48.479 -54.775  0.00  0.00    +0.000 OA
ATOM     14  H   UNL     1     -68.570 -52.523 -54.821  0.00  0.00    +0.000 HD
ENDROOT
BRANCH   1  16
ATOM     15  C   UNL     1     -67.281 -48.301 -57.858  0.00  0.00    +0.000 C 
ATOM     16  C   UNL     1     -67.955 -48.333 -56.506  0.00  0.00    +0.000 C 
ATOM     17  O   UNL     1     -68.710 -47.411 -56.192  0.00  0.00    +0.000 OA
ENDBRANCH   1  16
BRANCH   2  18
ATOM     18  S   UNL     1     -69.800 -50.919 -56.629  0.00  0.00    +0.000 S 
ATOM     19  O   UNL     1     -69.725 -52.408 -56.844  0.00  0.00    +0.000 OA
BRANCH  18  20
ATOM     20  C   UNL     1     -71.221 -50.645 -55.509  0.00  0.00    +0.000 C 
BRANCH  20  21
ATOM     21  C   UNL     1     -71.677 -51.906 -54.851  0.00  0.00    +0.000 A 
ATOM     22  C   UNL     1     -72.689 -52.824 -55.237  0.00  0.00    +0.000 A 
ATOM     23  C   UNL     1     -72.670 -53.792 -54.262  0.00  0.00    +0.000 A 
ATOM     24  C   UNL     1     -73.472 -54.998 -53.987  0.00  0.00    +0.000 C 
ATOM     25  O   UNL     1     -71.680 -53.508 -53.376  0.00  0.00    +0.000 OA
ATOM     26  N   UNL     1     -71.051 -52.333 -53.744  0.00  0.00    +0.000 NA
ENDBRANCH  20  21
ENDBRANCH  18  20
ENDBRANCH   2  18
TORSDOF 4
