REMARK VINA RESULT:    -4.850     11.159     13.621
REMARK INTER + INTRA:          -7.506
REMARK INTER:                  -6.453
REMARK INTRA:                  -1.053
REMARK UNBOUND:                -1.238
REMARK  Name = 
REMARK  8 active torsions:
REMARK  status: ('A' for Active; 'I' for Inactive)
REMARK    1  A    between atoms: C_1  and  C_2
REMARK    2  A    between atoms: C_4  and  C_5
REMARK    3  A    between atoms: C_5  and  S_6
REMARK    4  A    between atoms: S_6  and  C_8
REMARK    5  A    between atoms: C_20  and  C_21
REMARK    6  A    between atoms: C_21  and  C_23
REMARK    7  A    between atoms: C_23  and  C_24
REMARK    8  A    between atoms: C_23  and  C_25
REMARK                            x       y       z     vdW  Elec       q    Type
REMARK                         _______ _______ _______ _____ _____    ______ ____
ROOT
ATOM      1  C   UNL     1     -65.991 -42.368 -69.989  0.00  0.00    +0.000 A 
ATOM      2  N   UNL     1     -66.984 -42.126 -69.044  0.00  0.00    +0.000 N 
ATOM      3  C   UNL     1     -66.763 -41.280 -67.941  0.00  0.00    +0.000 A 
ATOM      4  C   UNL     1     -67.823 -40.692 -67.224  0.00  0.00    +0.000 A 
ATOM      5 BR   UNL     1     -69.618 -40.879 -67.808  0.00  0.00    +0.000 Br
ATOM      6  C   UNL     1     -67.579 -39.919 -66.085  0.00  0.00    +0.000 A 
ATOM      7  C   UNL     1     -66.273 -39.718 -65.649  0.00  0.00    +0.000 A 
ATOM      8  C   UNL     1     -65.199 -40.290 -66.355  0.00  0.00    +0.000 A 
ATOM      9 CL   UNL     1     -63.622 -39.912 -65.761  0.00  0.00    +0.000 Cl
ATOM     10  C   UNL     1     -65.446 -41.076 -67.500  0.00  0.00    +0.000 A 
ATOM     11  C   UNL     1     -64.386 -41.749 -68.295  0.00  0.00    +0.000 A 
ATOM     12  O   UNL     1     -63.306 -42.017 -67.777  0.00  0.00    +0.000 OA
ATOM     13  C   UNL     1     -64.683 -42.111 -69.747  0.00  0.00    +0.000 A 
ATOM     14  H   UNL     1     -67.937 -42.123 -69.433  0.00  0.00    +0.000 HD
ENDROOT
BRANCH   1  15
ATOM     15  S   UNL     1     -66.704 -42.848 -71.607  0.00  0.00    +0.000 S 
ATOM     16  O   UNL     1     -66.383 -41.681 -72.501  0.00  0.00    +0.000 OA
BRANCH  15  17
ATOM     17  C   UNL     1     -68.501 -42.854 -71.287  0.00  0.00    +0.000 C 
BRANCH  17  21
ATOM     18  C   UNL     1     -70.868 -47.453 -71.072  0.00  0.00    +0.000 C 
ATOM     19  C   UNL     1     -70.117 -46.184 -70.945  0.00  0.00    +0.000 A 
ATOM     20  C   UNL     1     -69.842 -45.128 -71.783  0.00  0.00    +0.000 A 
ATOM     21  C   UNL     1     -69.082 -44.217 -70.993  0.00  0.00    +0.000 A 
ATOM     22  N   UNL     1     -68.903 -44.723 -69.761  0.00  0.00    +0.000 NA
ATOM     23  O   UNL     1     -69.551 -45.943 -69.735  0.00  0.00    +0.000 OA
ENDBRANCH  17  21
ENDBRANCH  15  17
ENDBRANCH   1  15
BRANCH  13  24
ATOM     24  C   UNL     1     -63.512 -42.096 -70.704  0.00  0.00    +0.000 C 
ATOM     25  O   UNL     1     -63.282 -41.098 -71.385  0.00  0.00    +0.000 OA
BRANCH  24  26
ATOM     26  C   UNL     1     -62.644 -43.342 -70.883  0.00  0.00    +0.000 C 
ATOM     27  C   UNL     1     -63.457 -44.625 -70.731  0.00  0.00    +0.000 C 
ATOM     28  C   UNL     1     -61.906 -43.338 -72.224  0.00  0.00    +0.000 C 
ENDBRANCH  24  26
ENDBRANCH  13  24
TORSDOF 5
