REMARK VINA RESULT:    -6.244     13.678     15.501
REMARK INTER + INTRA:          -8.560
REMARK INTER:                  -7.942
REMARK INTRA:                  -0.618
REMARK UNBOUND:                -0.856
REMARK  Name = 
REMARK  6 active torsions:
REMARK  status: ('A' for Active; 'I' for Inactive)
REMARK    1  A    between atoms: C_1  and  C_2
REMARK    2  A    between atoms: C_2  and  C_4
REMARK    3  A    between atoms: C_5  and  S_6
REMARK    4  A    between atoms: S_6  and  C_8
REMARK    5  A    between atoms: C_8  and  C_9
REMARK    6  A    between atoms: C_11  and  C_12
REMARK                            x       y       z     vdW  Elec       q    Type
REMARK                         _______ _______ _______ _____ _____    ______ ____
ROOT
ATOM      1  C   UNL     1     -54.224 -41.093 -78.428  0.00  0.00    +0.000 A 
ATOM      2  C   UNL     1     -55.105 -42.118 -78.444  0.00  0.00    +0.000 A 
ATOM      3  N   UNL     1     -55.030 -43.181 -77.565  0.00  0.00    +0.000 N 
ATOM      4  C   UNL     1     -53.978 -43.347 -76.650  0.00  0.00    +0.000 A 
ATOM      5  C   UNL     1     -53.965 -44.427 -75.752  0.00  0.00    +0.000 A 
ATOM      6 BR   UNL     1     -55.335 -45.744 -75.791  0.00  0.00    +0.000 Br
ATOM      7  C   UNL     1     -52.952 -44.561 -74.801  0.00  0.00    +0.000 A 
ATOM      8  C   UNL     1     -51.935 -43.616 -74.740  0.00  0.00    +0.000 A 
ATOM      9  C   UNL     1     -51.928 -42.527 -75.615  0.00  0.00    +0.000 A 
ATOM     10 CL   UNL     1     -50.581 -41.455 -75.439  0.00  0.00    +0.000 Cl
ATOM     11  C   UNL     1     -52.970 -42.374 -76.552  0.00  0.00    +0.000 A 
ATOM     12  C   UNL     1     -53.081 -41.202 -77.452  0.00  0.00    +0.000 A 
ATOM     13  O   UNL     1     -52.233 -40.321 -77.402  0.00  0.00    +0.000 OA
ATOM     14  H   UNL     1     -55.589 -44.004 -77.776  0.00  0.00    +0.000 HD
ENDROOT
BRANCH   1  16
ATOM     15  C   UNL     1     -54.059 -39.988 -80.774  0.00  0.00    +0.000 C 
ATOM     16  C   UNL     1     -54.305 -39.861 -79.290  0.00  0.00    +0.000 C 
ATOM     17  O   UNL     1     -54.533 -38.759 -78.809  0.00  0.00    +0.000 OA
ENDBRANCH   1  16
BRANCH   2  18
ATOM     18  S   UNL     1     -56.408 -42.231 -79.727  0.00  0.00    +0.000 S 
ATOM     19  O   UNL     1     -56.911 -43.644 -79.609  0.00  0.00    +0.000 OA
BRANCH  18  20
ATOM     20  C   UNL     1     -57.695 -41.178 -78.963  0.00  0.00    +0.000 C 
BRANCH  20  21
ATOM     21  C   UNL     1     -57.722 -41.313 -77.476  0.00  0.00    +0.000 A 
ATOM     22  C   UNL     1     -57.476 -40.326 -76.486  0.00  0.00    +0.000 A 
ATOM     23  C   UNL     1     -57.708 -40.966 -75.290  0.00  0.00    +0.000 A 
ATOM     24  C   UNL     1     -57.649 -40.565 -73.870  0.00  0.00    +0.000 C 
ATOM     25  O   UNL     1     -58.076 -42.251 -75.542  0.00  0.00    +0.000 OA
ATOM     26  N   UNL     1     -58.095 -42.468 -76.911  0.00  0.00    +0.000 NA
ENDBRANCH  20  21
ENDBRANCH  18  20
ENDBRANCH   2  18
TORSDOF 4
