REMARK VINA RESULT:    -6.407      4.046      5.739
REMARK INTER + INTRA:          -9.459
REMARK INTER:                  -8.521
REMARK INTRA:                  -0.938
REMARK UNBOUND:                -1.180
REMARK  Name = 
REMARK  6 active torsions:
REMARK  status: ('A' for Active; 'I' for Inactive)
REMARK    1  A    between atoms: C_1  and  C_2
REMARK    2  A    between atoms: C_2  and  C_4
REMARK    3  A    between atoms: C_5  and  S_6
REMARK    4  A    between atoms: S_6  and  C_8
REMARK    5  A    between atoms: C_8  and  C_9
REMARK    6  A    between atoms: C_12  and  C_13
REMARK                            x       y       z     vdW  Elec       q    Type
REMARK                         _______ _______ _______ _____ _____    ______ ____
ROOT
ATOM      1  C   UNL     1     -57.295 -43.406 -77.809  0.00  0.00    +0.000 A 
ATOM      2  C   UNL     1     -56.346 -42.634 -77.242  0.00  0.00    +0.000 A 
ATOM      3  N   UNL     1     -55.274 -43.156 -76.545  0.00  0.00    +0.000 N 
ATOM      4  C   UNL     1     -55.102 -44.519 -76.285  0.00  0.00    +0.000 A 
ATOM      5  C   UNL     1     -53.978 -44.997 -75.588  0.00  0.00    +0.000 A 
ATOM      6 BR   UNL     1     -52.663 -43.806 -74.910  0.00  0.00    +0.000 Br
ATOM      7  C   UNL     1     -53.792 -46.363 -75.374  0.00  0.00    +0.000 A 
ATOM      8  C   UNL     1     -54.733 -47.271 -75.854  0.00  0.00    +0.000 A 
ATOM      9  C   UNL     1     -55.856 -46.820 -76.558  0.00  0.00    +0.000 A 
ATOM     10 CL   UNL     1     -56.936 -48.062 -77.090  0.00  0.00    +0.000 Cl
ATOM     11  C   UNL     1     -56.035 -45.443 -76.790  0.00  0.00    +0.000 A 
ATOM     12  C   UNL     1     -57.192 -44.886 -77.551  0.00  0.00    +0.000 A 
ATOM     13  O   UNL     1     -58.089 -45.624 -77.940  0.00  0.00    +0.000 OA
ATOM     14  H   UNL     1     -54.702 -42.473 -76.036  0.00  0.00    +0.000 HD
ENDROOT
BRANCH   1  16
ATOM     15  C   UNL     1     -58.187 -42.639 -80.114  0.00  0.00    +0.000 C 
ATOM     16  C   UNL     1     -58.430 -42.887 -78.641  0.00  0.00    +0.000 C 
ATOM     17  O   UNL     1     -59.522 -42.616 -78.144  0.00  0.00    +0.000 OA
ENDBRANCH   1  16
BRANCH   2  18
ATOM     18  S   UNL     1     -56.435 -40.816 -77.180  0.00  0.00    +0.000 S 
ATOM     19  O   UNL     1     -57.069 -40.546 -75.839  0.00  0.00    +0.000 OA
BRANCH  18  20
ATOM     20  C   UNL     1     -54.662 -40.393 -77.050  0.00  0.00    +0.000 C 
BRANCH  20  21
ATOM     21  C   UNL     1     -53.837 -40.953 -78.197  0.00  0.00    +0.000 A 
ATOM     22  C   UNL     1     -54.326 -40.941 -79.513  0.00  0.00    +0.000 A 
ATOM     23  C   UNL     1     -53.564 -41.448 -80.570  0.00  0.00    +0.000 A 
ATOM     24  C   UNL     1     -52.285 -41.960 -80.334  0.00  0.00    +0.000 A 
ATOM     25  C   UNL     1     -51.781 -41.964 -79.029  0.00  0.00    +0.000 A 
ATOM     26  C   UNL     1     -52.550 -41.467 -77.970  0.00  0.00    +0.000 A 
BRANCH  24  27
ATOM     27  C   UNL     1     -51.499 -42.481 -81.420  0.00  0.00    +0.000 C 
ATOM     28  N   UNL     1     -50.864 -42.904 -82.293  0.00  0.00    +0.000 NA
ENDBRANCH  24  27
ENDBRANCH  20  21
ENDBRANCH  18  20
ENDBRANCH   2  18
TORSDOF 5
