REMARK VINA RESULT:    -7.159      2.834      4.054
REMARK INTER + INTRA:         -10.122
REMARK INTER:                  -9.045
REMARK INTRA:                  -1.077
REMARK UNBOUND:                -0.870
REMARK  Name = 
REMARK  8 active torsions:
REMARK  status: ('A' for Active; 'I' for Inactive)
REMARK    1  A    between atoms: C_1  and  C_2
REMARK    2  A    between atoms: C_4  and  C_5
REMARK    3  A    between atoms: C_5  and  S_6
REMARK    4  A    between atoms: S_6  and  C_8
REMARK    5  A    between atoms: C_20  and  C_21
REMARK    6  A    between atoms: C_21  and  C_23
REMARK    7  A    between atoms: C_23  and  C_24
REMARK    8  A    between atoms: C_23  and  C_25
REMARK                            x       y       z     vdW  Elec       q    Type
REMARK                         _______ _______ _______ _____ _____    ______ ____
ROOT
ATOM      1  C   UNL     1     -55.632 -42.291 -77.390  0.00  0.00    +0.000 A 
ATOM      2  N   UNL     1     -54.917 -41.102 -77.289  0.00  0.00    +0.000 N 
ATOM      3  C   UNL     1     -53.577 -41.080 -76.857  0.00  0.00    +0.000 A 
ATOM      4  C   UNL     1     -52.718 -40.000 -77.134  0.00  0.00    +0.000 A 
ATOM      5 BR   UNL     1     -53.273 -38.574 -78.255  0.00  0.00    +0.000 Br
ATOM      6  C   UNL     1     -51.416 -39.968 -76.626  0.00  0.00    +0.000 A 
ATOM      7  C   UNL     1     -50.952 -41.017 -75.838  0.00  0.00    +0.000 A 
ATOM      8  C   UNL     1     -51.792 -42.109 -75.555  0.00  0.00    +0.000 A 
ATOM      9 CL   UNL     1     -51.084 -43.382 -74.628  0.00  0.00    +0.000 Cl
ATOM     10  C   UNL     1     -53.108 -42.138 -76.061  0.00  0.00    +0.000 A 
ATOM     11  C   UNL     1     -54.082 -43.227 -75.793  0.00  0.00    +0.000 A 
ATOM     12  O   UNL     1     -53.959 -43.931 -74.796  0.00  0.00    +0.000 OA
ATOM     13  C   UNL     1     -55.238 -43.429 -76.770  0.00  0.00    +0.000 A 
ATOM     14  H   UNL     1     -55.175 -40.399 -77.996  0.00  0.00    +0.000 HD
ENDROOT
BRANCH   1  15
ATOM     15  S   UNL     1     -56.995 -42.155 -78.608  0.00  0.00    +0.000 S 
ATOM     16  O   UNL     1     -56.365 -41.441 -79.773  0.00  0.00    +0.000 OA
BRANCH  15  17
ATOM     17  C   UNL     1     -58.169 -41.018 -77.798  0.00  0.00    +0.000 C 
BRANCH  17  21
ATOM     18  C   UNL     1     -58.009 -40.900 -72.625  0.00  0.00    +0.000 C 
ATOM     19  C   UNL     1     -58.180 -41.098 -74.081  0.00  0.00    +0.000 A 
ATOM     20  C   UNL     1     -57.810 -40.401 -75.209  0.00  0.00    +0.000 A 
ATOM     21  C   UNL     1     -58.278 -41.187 -76.301  0.00  0.00    +0.000 A 
ATOM     22  N   UNL     1     -58.910 -42.280 -75.838  0.00  0.00    +0.000 NA
ATOM     23  O   UNL     1     -58.843 -42.221 -74.459  0.00  0.00    +0.000 OA
ENDBRANCH  17  21
ENDBRANCH  15  17
ENDBRANCH   1  15
BRANCH  13  24
ATOM     24  C   UNL     1     -55.747 -44.843 -76.938  0.00  0.00    +0.000 C 
ATOM     25  O   UNL     1     -56.926 -45.108 -76.708  0.00  0.00    +0.000 OA
BRANCH  24  26
ATOM     26  C   UNL     1     -54.788 -45.968 -77.330  0.00  0.00    +0.000 C 
ATOM     27  C   UNL     1     -54.687 -47.031 -76.239  0.00  0.00    +0.000 C 
ATOM     28  C   UNL     1     -55.174 -46.610 -78.664  0.00  0.00    +0.000 C 
ENDBRANCH  24  26
ENDBRANCH  13  24
TORSDOF 5
