REMARK VINA RESULT:    -5.932     23.042     26.039
REMARK INTER + INTRA:          -8.290
REMARK INTER:                  -7.510
REMARK INTRA:                  -0.781
REMARK UNBOUND:                -0.971
REMARK  Name = 
REMARK  6 active torsions:
REMARK  status: ('A' for Active; 'I' for Inactive)
REMARK    1  A    between atoms: C_1  and  C_2
REMARK    2  A    between atoms: C_2  and  C_4
REMARK    3  A    between atoms: C_5  and  S_6
REMARK    4  A    between atoms: S_6  and  C_8
REMARK    5  A    between atoms: C_8  and  C_9
REMARK    6  A    between atoms: C_11  and  C_12
REMARK                            x       y       z     vdW  Elec       q    Type
REMARK                         _______ _______ _______ _____ _____    ______ ____
ROOT
ATOM      1  C   UNL     1     -68.843 -51.359 -55.668  0.00  0.00    +0.000 A 
ATOM      2  C   UNL     1     -68.038 -50.278 -55.794  0.00  0.00    +0.000 A 
ATOM      3  N   UNL     1     -66.839 -50.139 -55.116  0.00  0.00    +0.000 N 
ATOM      4  C   UNL     1     -66.454 -51.009 -54.078  0.00  0.00    +0.000 A 
ATOM      5  C   UNL     1     -65.281 -50.776 -53.337  0.00  0.00    +0.000 A 
ATOM      6 BR   UNL     1     -64.208 -49.242 -53.665  0.00  0.00    +0.000 Br
ATOM      7  C   UNL     1     -64.874 -51.656 -52.337  0.00  0.00    +0.000 A 
ATOM      8  C   UNL     1     -65.635 -52.789 -52.067  0.00  0.00    +0.000 A 
ATOM      9  C   UNL     1     -66.792 -53.058 -52.808  0.00  0.00    +0.000 A 
ATOM     10 CL   UNL     1     -67.649 -54.485 -52.336  0.00  0.00    +0.000 Cl
ATOM     11  C   UNL     1     -67.192 -52.179 -53.835  0.00  0.00    +0.000 A 
ATOM     12  C   UNL     1     -68.387 -52.413 -54.692  0.00  0.00    +0.000 A 
ATOM     13  O   UNL     1     -69.011 -53.461 -54.582  0.00  0.00    +0.000 OA
ATOM     14  H   UNL     1     -66.519 -49.175 -55.005  0.00  0.00    +0.000 HD
ENDROOT
BRANCH   1  16
ATOM     15  C   UNL     1     -71.446 -51.164 -55.727  0.00  0.00    +0.000 C 
ATOM     16  C   UNL     1     -70.146 -51.545 -56.405  0.00  0.00    +0.000 C 
ATOM     17  O   UNL     1     -70.184 -52.006 -57.548  0.00  0.00    +0.000 OA
ENDBRANCH   1  16
BRANCH   2  18
ATOM     18  S   UNL     1     -68.548 -48.802 -56.753  0.00  0.00    +0.000 S 
ATOM     19  O   UNL     1     -69.618 -48.187 -55.889  0.00  0.00    +0.000 OA
BRANCH  18  20
ATOM     20  C   UNL     1     -67.059 -47.768 -56.521  0.00  0.00    +0.000 C 
BRANCH  20  21
ATOM     21  C   UNL     1     -66.302 -47.560 -57.796  0.00  0.00    +0.000 A 
ATOM     22  C   UNL     1     -65.021 -46.984 -58.004  0.00  0.00    +0.000 A 
ATOM     23  C   UNL     1     -64.770 -47.162 -59.343  0.00  0.00    +0.000 A 
ATOM     24  C   UNL     1     -63.641 -46.851 -60.242  0.00  0.00    +0.000 C 
ATOM     25  O   UNL     1     -65.838 -47.790 -59.910  0.00  0.00    +0.000 OA
ATOM     26  N   UNL     1     -66.794 -48.047 -58.944  0.00  0.00    +0.000 NA
ENDBRANCH  20  21
ENDBRANCH  18  20
ENDBRANCH   2  18
TORSDOF 4
