=
 OpenBabel09172513203D

 26 28  0  0  0  0  0  0  0  0999 V2000
  -55.9440  -42.4710  -62.7490 C   0  0  0  0  0  0  0  0  0  0  0  0
  -55.6320  -41.3020  -63.3550 C   0  0  0  0  0  0  0  0  0  0  0  0
  -54.4140  -41.0600  -63.9550 N   0  0  0  0  0  0  0  0  0  0  0  0
  -53.3350  -41.9560  -63.8770 C   0  0  0  0  0  0  0  0  0  0  0  0
  -52.1080  -41.6580  -64.5030 C   0  0  0  0  0  0  0  0  0  0  0  0
  -51.8490  -40.0110  -65.4150 Br  0  0  0  0  0  0  0  0  0  0  0  0
  -51.0490  -42.5640  -64.4740 C   0  0  0  0  0  3  0  0  0  0  0  0
  -51.2060  -43.7810  -63.8210 C   0  0  0  0  0  3  0  0  0  0  0  0
  -52.4220  -44.1100  -63.2130 C   0  0  0  0  0  0  0  0  0  0  0  0
  -52.4570  -45.6530  -62.4320 Cl  0  0  0  0  0  0  0  0  0  0  0  0
  -53.5030  -43.2060  -63.2590 C   0  0  0  0  0  0  0  0  0  0  0  0
  -54.8370  -43.4900  -62.6640 C   0  0  0  0  0  0  0  0  0  0  0  0
  -55.0230  -44.5430  -62.0650 O   0  0  0  0  0  0  0  0  0  0  0  0
  -54.1620  -40.0770  -64.0660 H   0  0  0  0  0  0  0  0  0  0  0  0
  -58.3390  -43.4590  -62.9850 C   0  0  0  0  0  1  0  0  0  0  0  0
  -57.2810  -42.7900  -62.1350 C   0  0  0  0  0  0  0  0  0  0  0  0
  -57.5460  -42.5020  -60.9710 O   0  0  0  0  0  0  0  0  0  0  0  0
  -56.7640  -39.8660  -63.2880 S   0  0  1  0  0  0  0  0  0  0  0  0
  -56.4810  -39.2640  -61.9380 O   0  0  0  0  0  0  0  0  0  0  0  0
  -55.9390  -38.7800  -64.5070 C   0  0  0  0  0  2  0  0  0  0  0  0
  -55.2700  -37.6130  -63.8600 C   0  0  0  0  0  0  0  0  0  0  0  0
  -55.8010  -36.3370  -63.5340 C   0  0  0  0  0  3  0  0  0  0  0  0
  -54.7800  -35.6920  -62.8820 C   0  0  0  0  0  0  0  0  0  0  0  0
  -54.6230  -34.3610  -62.2630 C   0  0  0  0  0  1  0  0  0  0  0  0
  -53.7040  -36.5200  -62.8130 O   0  0  0  0  0  0  0  0  0  0  0  0
  -54.0080  -37.7270  -63.4190 N   0  0  0  0  0  0  0  0  0  0  0  0
  1 12  1  0  0  0  0
  1 16  1  0  0  0  0
  2 18  1  0  0  0  0
  2  1  2  0  0  0  0
  3  4  1  0  0  0  0
  3  2  1  0  0  0  0
  4 11  1  0  0  0  0
  5  7  1  0  0  0  0
  5  4  2  0  0  0  0
  6  5  1  0  0  0  0
  7  8  2  0  0  0  0
  8  9  1  0  0  0  0
  9 10  1  0  0  0  0
 11  9  2  0  0  0  0
 11 12  1  0  0  0  0
 12 13  2  0  0  0  0
 14  3  1  0  0  0  0
 15 16  1  0  0  0  0
 16 17  2  0  0  0  0
 18 19  2  1  0  0  0
 20 21  1  0  0  0  0
 20 18  1  0  0  0  0
 21 22  1  0  0  0  0
 21 26  2  0  0  0  0
 22 23  2  0  0  0  0
 23 25  1  0  0  0  0
 23 24  1  0  0  0  0
 26 25  1  0  0  0  0
M  END
>  <MODEL>
1

>  <REMARK>
 VINA RESULT:    -6.856      0.000      0.000
 INTER + INTRA:          -9.425
 INTER:                  -8.460
 INTRA:                  -0.965
 UNBOUND:                -0.965
  Name = 
  6 active torsions:
  status: ('A' for Active; 'I' for Inactive)
    1  A    between atoms: C_1  and  C_2
    2  A    between atoms: C_2  and  C_4
    3  A    between atoms: C_5  and  S_6
    4  A    between atoms: S_6  and  C_8
    5  A    between atoms: C_8  and  C_9
    6  A    between atoms: C_11  and  C_12
                            x       y       z     vdW  Elec       q    Type
                         _______ _______ _______ _____ _____    ______ ____

>  <TORSDO>
F 4

$$$$
