REMARK VINA RESULT:    -6.322     12.381     14.523
REMARK INTER + INTRA:          -8.970
REMARK INTER:                  -7.764
REMARK INTRA:                  -1.206
REMARK UNBOUND:                -0.800
REMARK  Name = 
REMARK  8 active torsions:
REMARK  status: ('A' for Active; 'I' for Inactive)
REMARK    1  A    between atoms: C_1  and  C_2
REMARK    2  A    between atoms: C_4  and  C_5
REMARK    3  A    between atoms: C_5  and  S_6
REMARK    4  A    between atoms: S_6  and  C_8
REMARK    5  A    between atoms: C_20  and  C_21
REMARK    6  A    between atoms: C_21  and  C_23
REMARK    7  A    between atoms: C_23  and  C_24
REMARK    8  A    between atoms: C_23  and  C_25
REMARK                            x       y       z     vdW  Elec       q    Type
REMARK                         _______ _______ _______ _____ _____    ______ ____
ROOT
ATOM      1  C   UNL     1     -56.167 -42.126 -77.979  0.00  0.00    +0.000 A 
ATOM      2  N   UNL     1     -55.353 -41.021 -77.750  0.00  0.00    +0.000 N 
ATOM      3  C   UNL     1     -54.074 -41.152 -77.174  0.00  0.00    +0.000 A 
ATOM      4  C   UNL     1     -53.087 -40.157 -77.309  0.00  0.00    +0.000 A 
ATOM      5 BR   UNL     1     -53.370 -38.645 -78.418  0.00  0.00    +0.000 Br
ATOM      6  C   UNL     1     -51.853 -40.277 -76.662  0.00  0.00    +0.000 A 
ATOM      7  C   UNL     1     -51.587 -41.394 -75.876  0.00  0.00    +0.000 A 
ATOM      8  C   UNL     1     -52.557 -42.403 -75.735  0.00  0.00    +0.000 A 
ATOM      9 CL   UNL     1     -52.085 -43.772 -74.794  0.00  0.00    +0.000 Cl
ATOM     10  C   UNL     1     -53.804 -42.279 -76.381  0.00  0.00    +0.000 A 
ATOM     11  C   UNL     1     -54.905 -43.270 -76.268  0.00  0.00    +0.000 A 
ATOM     12  O   UNL     1     -54.964 -44.016 -75.295  0.00  0.00    +0.000 OA
ATOM     13  C   UNL     1     -55.958 -43.319 -77.372  0.00  0.00    +0.000 A 
ATOM     14  H   UNL     1     -55.460 -40.272 -78.448  0.00  0.00    +0.000 HD
ENDROOT
BRANCH   1  15
ATOM     15  S   UNL     1     -57.364 -41.810 -79.330  0.00  0.00    +0.000 S 
ATOM     16  O   UNL     1     -58.614 -42.513 -78.874  0.00  0.00    +0.000 OA
BRANCH  15  17
ATOM     17  C   UNL     1     -56.662 -42.736 -80.738  0.00  0.00    +0.000 C 
BRANCH  17  21
ATOM     18  C   UNL     1     -52.722 -41.065 -83.651  0.00  0.00    +0.000 C 
ATOM     19  C   UNL     1     -53.841 -41.356 -82.728  0.00  0.00    +0.000 A 
ATOM     20  C   UNL     1     -54.736 -42.390 -82.578  0.00  0.00    +0.000 A 
ATOM     21  C   UNL     1     -55.534 -42.030 -81.453  0.00  0.00    +0.000 A 
ATOM     22  N   UNL     1     -55.141 -40.835 -80.981  0.00  0.00    +0.000 NA
ATOM     23  O   UNL     1     -54.087 -40.422 -81.774  0.00  0.00    +0.000 OA
ENDBRANCH  17  21
ENDBRANCH  15  17
ENDBRANCH   1  15
BRANCH  13  24
ATOM     24  C   UNL     1     -56.582 -44.667 -77.657  0.00  0.00    +0.000 C 
ATOM     25  O   UNL     1     -57.636 -44.989 -77.110  0.00  0.00    +0.000 OA
BRANCH  24  26
ATOM     26  C   UNL     1     -55.877 -45.666 -78.574  0.00  0.00    +0.000 C 
ATOM     27  C   UNL     1     -55.084 -46.701 -77.779  0.00  0.00    +0.000 C 
ATOM     28  C   UNL     1     -56.856 -46.362 -79.523  0.00  0.00    +0.000 C 
ENDBRANCH  24  26
ENDBRANCH  13  24
TORSDOF 5
