REMARK VINA RESULT:    -6.526      3.590      4.103
REMARK INTER + INTRA:          -9.307
REMARK INTER:                  -8.563
REMARK INTRA:                  -0.744
REMARK UNBOUND:                -0.873
REMARK  Name = 
REMARK  6 active torsions:
REMARK  status: ('A' for Active; 'I' for Inactive)
REMARK    1  A    between atoms: C_1  and  C_2
REMARK    2  A    between atoms: C_4  and  C_5
REMARK    3  A    between atoms: C_5  and  S_6
REMARK    4  A    between atoms: S_6  and  C_8
REMARK    5  A    between atoms: C_20  and  C_21
REMARK    6  A    between atoms: C_21  and  C_23
REMARK                            x       y       z     vdW  Elec       q    Type
REMARK                         _______ _______ _______ _____ _____    ______ ____
ROOT
ATOM      1  C   UNL     1     -55.414 -41.523 -79.017  0.00  0.00    +0.000 A 
ATOM      2  N   UNL     1     -55.433 -40.928 -80.293  0.00  0.00    +0.000 N 
ATOM      3  C   UNL     1     -54.466 -41.286 -81.273  0.00  0.00    +0.000 A 
ATOM      4  C   UNL     1     -54.643 -41.048 -82.649  0.00  0.00    +0.000 A 
ATOM      5 BR   UNL     1     -56.286 -40.383 -83.324  0.00  0.00    +0.000 Br
ATOM      6  C   UNL     1     -53.619 -41.316 -83.568  0.00  0.00    +0.000 A 
ATOM      7  C   UNL     1     -52.409 -41.855 -83.119  0.00  0.00    +0.000 A 
ATOM      8  C   UNL     1     -52.211 -42.102 -81.760  0.00  0.00    +0.000 A 
ATOM      9 CL   UNL     1     -50.712 -42.835 -81.317  0.00  0.00    +0.000 Cl
ATOM     10  C   UNL     1     -53.230 -41.796 -80.846  0.00  0.00    +0.000 A 
ATOM     11  C   UNL     1     -53.082 -41.942 -79.385  0.00  0.00    +0.000 A 
ATOM     12  O   UNL     1     -51.997 -41.810 -78.830  0.00  0.00    +0.000 OA
ATOM     13  C   UNL     1     -54.320 -42.180 -78.572  0.00  0.00    +0.000 A 
ATOM     14  H   UNL     1     -56.388 -40.838 -80.667  0.00  0.00    +0.000 HD
ENDROOT
BRANCH   1  15
ATOM     15  S   UNL     1     -57.070 -41.689 -78.301  0.00  0.00    +0.000 S 
ATOM     16  O   UNL     1     -57.990 -41.183 -79.378  0.00  0.00    +0.000 OA
BRANCH  15  17
ATOM     17  C   UNL     1     -57.232 -40.571 -76.878  0.00  0.00    +0.000 C 
BRANCH  17  21
ATOM     18  C   UNL     1     -58.775 -41.428 -72.072  0.00  0.00    +0.000 C 
ATOM     19  C   UNL     1     -58.492 -41.307 -73.514  0.00  0.00    +0.000 A 
ATOM     20  C   UNL     1     -57.606 -40.574 -74.268  0.00  0.00    +0.000 A 
ATOM     21  C   UNL     1     -57.813 -41.019 -75.592  0.00  0.00    +0.000 A 
ATOM     22  N   UNL     1     -58.815 -41.916 -75.637  0.00  0.00    +0.000 NA
ATOM     23  O   UNL     1     -59.234 -42.093 -74.335  0.00  0.00    +0.000 OA
ENDBRANCH  17  21
ENDBRANCH  15  17
ENDBRANCH   1  15
BRANCH  13  24
ATOM     24  C   UNL     1     -54.158 -43.231 -77.528  0.00  0.00    +0.000 C 
ATOM     25  O   UNL     1     -54.394 -44.399 -77.782  0.00  0.00    +0.000 OA
BRANCH  24  26
ATOM     26  C   UNL     1     -53.662 -42.839 -76.195  0.00  0.00    +0.000 C 
ATOM     27  C   UNL     1     -53.433 -43.899 -75.148  0.00  0.00    +0.000 C 
ATOM     28  C   UNL     1     -54.549 -42.914 -74.975  0.00  0.00    +0.000 C 
ENDBRANCH  24  26
ENDBRANCH  13  24
TORSDOF 5
