REMARK VINA RESULT:    -6.861     11.968     13.545
REMARK INTER + INTRA:          -9.742
REMARK INTER:                  -8.960
REMARK INTRA:                  -0.782
REMARK UNBOUND:                -0.876
REMARK  Name = 
REMARK  6 active torsions:
REMARK  status: ('A' for Active; 'I' for Inactive)
REMARK    1  A    between atoms: C_1  and  C_2
REMARK    2  A    between atoms: C_4  and  C_5
REMARK    3  A    between atoms: C_5  and  S_6
REMARK    4  A    between atoms: S_6  and  C_8
REMARK    5  A    between atoms: C_20  and  C_21
REMARK    6  A    between atoms: C_21  and  C_23
REMARK                            x       y       z     vdW  Elec       q    Type
REMARK                         _______ _______ _______ _____ _____    ______ ____
ROOT
ATOM      1  C   UNL     1     -55.449 -41.258 -63.425  0.00  0.00    +0.000 A 
ATOM      2  N   UNL     1     -54.088 -41.020 -63.694  0.00  0.00    +0.000 N 
ATOM      3  C   UNL     1     -53.169 -42.101 -63.791  0.00  0.00    +0.000 A 
ATOM      4  C   UNL     1     -51.918 -41.991 -64.426  0.00  0.00    +0.000 A 
ATOM      5 BR   UNL     1     -51.433 -40.418 -65.369  0.00  0.00    +0.000 Br
ATOM      6  C   UNL     1     -50.998 -43.049 -64.403  0.00  0.00    +0.000 A 
ATOM      7  C   UNL     1     -51.335 -44.247 -63.763  0.00  0.00    +0.000 A 
ATOM      8  C   UNL     1     -52.571 -44.380 -63.129  0.00  0.00    +0.000 A 
ATOM      9 CL   UNL     1     -52.920 -45.920 -62.431  0.00  0.00    +0.000 Cl
ATOM     10  C   UNL     1     -53.468 -43.301 -63.128  0.00  0.00    +0.000 A 
ATOM     11  C   UNL     1     -54.759 -43.319 -62.412  0.00  0.00    +0.000 A 
ATOM     12  O   UNL     1     -54.919 -43.971 -61.388  0.00  0.00    +0.000 OA
ATOM     13  C   UNL     1     -55.863 -42.446 -62.931  0.00  0.00    +0.000 A 
ATOM     14  H   UNL     1     -53.954 -40.297 -64.415  0.00  0.00    +0.000 HD
ENDROOT
BRANCH   1  15
ATOM     15  S   UNL     1     -56.538 -40.038 -64.207  0.00  0.00    +0.000 S 
ATOM     16  O   UNL     1     -57.068 -40.744 -65.425  0.00  0.00    +0.000 OA
BRANCH  15  17
ATOM     17  C   UNL     1     -55.551 -38.626 -64.783  0.00  0.00    +0.000 C 
BRANCH  17  21
ATOM     18  C   UNL     1     -54.401 -34.366 -62.186  0.00  0.00    +0.000 C 
ATOM     19  C   UNL     1     -54.684 -35.697 -62.754  0.00  0.00    +0.000 A 
ATOM     20  C   UNL     1     -55.188 -36.150 -63.950  0.00  0.00    +0.000 A 
ATOM     21  C   UNL     1     -55.101 -37.557 -63.862  0.00  0.00    +0.000 A 
ATOM     22  N   UNL     1     -54.637 -37.926 -62.655  0.00  0.00    +0.000 NA
ATOM     23  O   UNL     1     -54.377 -36.759 -61.968  0.00  0.00    +0.000 OA
ENDBRANCH  17  21
ENDBRANCH  15  17
ENDBRANCH   1  15
BRANCH  13  24
ATOM     24  C   UNL     1     -57.193 -43.119 -62.966  0.00  0.00    +0.000 C 
ATOM     25  O   UNL     1     -57.346 -44.158 -63.585  0.00  0.00    +0.000 OA
BRANCH  24  26
ATOM     26  C   UNL     1     -58.307 -42.530 -62.200  0.00  0.00    +0.000 C 
ATOM     27  C   UNL     1     -58.276 -42.575 -60.694  0.00  0.00    +0.000 C 
ATOM     28  C   UNL     1     -59.280 -43.401 -61.440  0.00  0.00    +0.000 C 
ENDBRANCH  24  26
ENDBRANCH  13  24
TORSDOF 5
