REMARK VINA RESULT:    -6.764     11.255     13.434
REMARK INTER + INTRA:          -9.376
REMARK INTER:                  -8.506
REMARK INTRA:                  -0.869
REMARK UNBOUND:                -0.635
REMARK  Name = 
REMARK  6 active torsions:
REMARK  status: ('A' for Active; 'I' for Inactive)
REMARK    1  A    between atoms: C_1  and  C_2
REMARK    2  A    between atoms: C_4  and  C_5
REMARK    3  A    between atoms: C_5  and  S_6
REMARK    4  A    between atoms: S_6  and  C_8
REMARK    5  A    between atoms: C_20  and  C_21
REMARK    6  A    between atoms: C_21  and  C_23
REMARK                            x       y       z     vdW  Elec       q    Type
REMARK                         _______ _______ _______ _____ _____    ______ ____
ROOT
ATOM      1  C   UNL     1     -57.622 -43.062 -77.214  0.00  0.00    +0.000 A 
ATOM      2  N   UNL     1     -57.277 -44.374 -77.590  0.00  0.00    +0.000 N 
ATOM      3  C   UNL     1     -56.225 -45.064 -76.928  0.00  0.00    +0.000 A 
ATOM      4  C   UNL     1     -56.080 -46.464 -76.967  0.00  0.00    +0.000 A 
ATOM      5 BR   UNL     1     -57.401 -47.563 -77.769  0.00  0.00    +0.000 Br
ATOM      6  C   UNL     1     -54.967 -47.094 -76.393  0.00  0.00    +0.000 A 
ATOM      7  C   UNL     1     -53.994 -46.325 -75.745  0.00  0.00    +0.000 A 
ATOM      8  C   UNL     1     -54.117 -44.936 -75.692  0.00  0.00    +0.000 A 
ATOM      9 CL   UNL     1     -52.901 -44.086 -74.808  0.00  0.00    +0.000 Cl
ATOM     10  C   UNL     1     -55.217 -44.315 -76.301  0.00  0.00    +0.000 A 
ATOM     11  C   UNL     1     -55.387 -42.850 -76.371  0.00  0.00    +0.000 A 
ATOM     12  O   UNL     1     -54.428 -42.091 -76.414  0.00  0.00    +0.000 OA
ATOM     13  C   UNL     1     -56.783 -42.309 -76.469  0.00  0.00    +0.000 A 
ATOM     14  H   UNL     1     -58.106 -44.958 -77.771  0.00  0.00    +0.000 HD
ENDROOT
BRANCH   1  15
ATOM     15  S   UNL     1     -59.387 -42.715 -77.434  0.00  0.00    +0.000 S 
ATOM     16  O   UNL     1     -60.032 -44.075 -77.442  0.00  0.00    +0.000 OA
BRANCH  15  17
ATOM     17  C   UNL     1     -59.661 -41.974 -79.069  0.00  0.00    +0.000 C 
BRANCH  17  21
ATOM     18  C   UNL     1     -61.739 -37.455 -80.289  0.00  0.00    +0.000 C 
ATOM     19  C   UNL     1     -61.081 -38.663 -79.756  0.00  0.00    +0.000 A 
ATOM     20  C   UNL     1     -60.967 -39.967 -80.175  0.00  0.00    +0.000 A 
ATOM     21  C   UNL     1     -60.112 -40.572 -79.228  0.00  0.00    +0.000 A 
ATOM     22  N   UNL     1     -59.790 -39.698 -78.258  0.00  0.00    +0.000 NA
ATOM     23  O   UNL     1     -60.397 -38.506 -78.594  0.00  0.00    +0.000 OA
ENDBRANCH  17  21
ENDBRANCH  15  17
ENDBRANCH   1  15
BRANCH  13  24
ATOM     24  C   UNL     1     -57.032 -41.132 -75.588  0.00  0.00    +0.000 C 
ATOM     25  O   UNL     1     -57.265 -40.037 -76.069  0.00  0.00    +0.000 OA
BRANCH  24  26
ATOM     26  C   UNL     1     -57.040 -41.328 -74.126  0.00  0.00    +0.000 C 
ATOM     27  C   UNL     1     -57.731 -42.534 -73.543  0.00  0.00    +0.000 C 
ATOM     28  C   UNL     1     -58.309 -41.170 -73.322  0.00  0.00    +0.000 C 
ENDBRANCH  24  26
ENDBRANCH  13  24
TORSDOF 5
