REMARK VINA RESULT:    -5.359      3.044      4.735
REMARK INTER + INTRA:          -7.654
REMARK INTER:                  -6.711
REMARK INTRA:                  -0.943
REMARK UNBOUND:                -1.042
REMARK  Name = 
REMARK  6 active torsions:
REMARK  status: ('A' for Active; 'I' for Inactive)
REMARK    1  A    between atoms: C_1  and  C_2
REMARK    2  A    between atoms: C_2  and  C_4
REMARK    3  A    between atoms: C_5  and  S_6
REMARK    4  A    between atoms: S_6  and  C_8
REMARK    5  A    between atoms: C_8  and  C_9
REMARK    6  A    between atoms: C_11  and  C_12
REMARK                            x       y       z     vdW  Elec       q    Type
REMARK                         _______ _______ _______ _____ _____    ______ ____
ROOT
ATOM      1  C   UNL     1     -53.951 -41.627 -78.410  0.00  0.00    +0.000 A 
ATOM      2  C   UNL     1     -54.824 -42.447 -77.780  0.00  0.00    +0.000 A 
ATOM      3  N   UNL     1     -56.004 -42.881 -78.350  0.00  0.00    +0.000 N 
ATOM      4  C   UNL     1     -56.460 -42.429 -79.597  0.00  0.00    +0.000 A 
ATOM      5  C   UNL     1     -57.668 -42.912 -80.140  0.00  0.00    +0.000 A 
ATOM      6 BR   UNL     1     -58.755 -44.130 -79.166  0.00  0.00    +0.000 Br
ATOM      7  C   UNL     1     -58.097 -42.515 -81.401  0.00  0.00    +0.000 A 
ATOM      8  C   UNL     1     -57.321 -41.633 -82.148  0.00  0.00    +0.000 A 
ATOM      9  C   UNL     1     -56.107 -41.153 -81.640  0.00  0.00    +0.000 A 
ATOM     10 CL   UNL     1     -55.261 -40.056 -82.674  0.00  0.00    +0.000 Cl
ATOM     11  C   UNL     1     -55.661 -41.569 -80.367  0.00  0.00    +0.000 A 
ATOM     12  C   UNL     1     -54.378 -41.116 -79.761  0.00  0.00    +0.000 A 
ATOM     13  O   UNL     1     -53.682 -40.294 -80.345  0.00  0.00    +0.000 OA
ATOM     14  H   UNL     1     -56.722 -43.203 -77.701  0.00  0.00    +0.000 HD
ENDROOT
BRANCH   1  16
ATOM     15  C   UNL     1     -52.565 -39.875 -77.077  0.00  0.00    +0.000 C 
ATOM     16  C   UNL     1     -52.630 -41.181 -77.837  0.00  0.00    +0.000 C 
ATOM     17  O   UNL     1     -51.602 -41.837 -77.992  0.00  0.00    +0.000 OA
ENDBRANCH   1  16
BRANCH   2  18
ATOM     18  S   UNL     1     -54.575 -42.940 -76.043  0.00  0.00    +0.000 S 
ATOM     19  O   UNL     1     -54.819 -41.666 -75.276  0.00  0.00    +0.000 OA
BRANCH  18  20
ATOM     20  C   UNL     1     -56.072 -43.962 -75.811  0.00  0.00    +0.000 C 
BRANCH  20  21
ATOM     21  C   UNL     1     -57.168 -43.230 -75.108  0.00  0.00    +0.000 A 
ATOM     22  C   UNL     1     -57.409 -43.057 -73.721  0.00  0.00    +0.000 A 
ATOM     23  C   UNL     1     -58.531 -42.269 -73.658  0.00  0.00    +0.000 A 
ATOM     24  C   UNL     1     -59.354 -41.727 -72.561  0.00  0.00    +0.000 C 
ATOM     25  O   UNL     1     -58.922 -41.954 -74.921  0.00  0.00    +0.000 OA
ATOM     26  N   UNL     1     -58.067 -42.547 -75.832  0.00  0.00    +0.000 NA
ENDBRANCH  20  21
ENDBRANCH  18  20
ENDBRANCH   2  18
TORSDOF 4
