REMARK VINA RESULT:    -5.845     13.551     14.468
REMARK INTER + INTRA:          -8.215
REMARK INTER:                  -7.484
REMARK INTRA:                  -0.731
REMARK UNBOUND:                -1.003
REMARK  Name = 
REMARK  6 active torsions:
REMARK  status: ('A' for Active; 'I' for Inactive)
REMARK    1  A    between atoms: C_1  and  C_2
REMARK    2  A    between atoms: C_2  and  C_4
REMARK    3  A    between atoms: C_5  and  S_6
REMARK    4  A    between atoms: S_6  and  C_8
REMARK    5  A    between atoms: C_8  and  C_9
REMARK    6  A    between atoms: C_11  and  C_12
REMARK                            x       y       z     vdW  Elec       q    Type
REMARK                         _______ _______ _______ _____ _____    ______ ____
ROOT
ATOM      1  C   UNL     1     -57.163 -42.022 -78.574  0.00  0.00    +0.000 A 
ATOM      2  C   UNL     1     -56.776 -42.381 -77.329  0.00  0.00    +0.000 A 
ATOM      3  N   UNL     1     -55.459 -42.366 -76.913  0.00  0.00    +0.000 N 
ATOM      4  C   UNL     1     -54.384 -42.142 -77.793  0.00  0.00    +0.000 A 
ATOM      5  C   UNL     1     -53.053 -42.213 -77.346  0.00  0.00    +0.000 A 
ATOM      6 BR   UNL     1     -52.652 -42.701 -75.553  0.00  0.00    +0.000 Br
ATOM      7  C   UNL     1     -51.988 -41.938 -78.203  0.00  0.00    +0.000 A 
ATOM      8  C   UNL     1     -52.244 -41.578 -79.519  0.00  0.00    +0.000 A 
ATOM      9  C   UNL     1     -53.562 -41.475 -79.987  0.00  0.00    +0.000 A 
ATOM     10 CL   UNL     1     -53.714 -41.027 -81.650  0.00  0.00    +0.000 Cl
ATOM     11  C   UNL     1     -54.639 -41.745 -79.118  0.00  0.00    +0.000 A 
ATOM     12  C   UNL     1     -56.060 -41.667 -79.540  0.00  0.00    +0.000 A 
ATOM     13  O   UNL     1     -56.339 -41.353 -80.684  0.00  0.00    +0.000 OA
ATOM     14  H   UNL     1     -55.244 -42.965 -76.115  0.00  0.00    +0.000 HD
ENDROOT
BRANCH   1  16
ATOM     15  C   UNL     1     -59.437 -40.765 -78.839  0.00  0.00    +0.000 C 
ATOM     16  C   UNL     1     -58.598 -42.002 -79.058  0.00  0.00    +0.000 C 
ATOM     17  O   UNL     1     -59.102 -42.975 -79.621  0.00  0.00    +0.000 OA
ENDBRANCH   1  16
BRANCH   2  18
ATOM     18  S   UNL     1     -57.956 -43.093 -76.134  0.00  0.00    +0.000 S 
ATOM     19  O   UNL     1     -57.067 -43.764 -75.121  0.00  0.00    +0.000 OA
BRANCH  18  20
ATOM     20  C   UNL     1     -58.555 -41.558 -75.341  0.00  0.00    +0.000 C 
BRANCH  20  21
ATOM     21  C   UNL     1     -58.102 -41.429 -73.921  0.00  0.00    +0.000 A 
ATOM     22  C   UNL     1     -56.867 -40.971 -73.390  0.00  0.00    +0.000 A 
ATOM     23  C   UNL     1     -57.020 -41.056 -72.026  0.00  0.00    +0.000 A 
ATOM     24  C   UNL     1     -56.146 -40.798 -70.867  0.00  0.00    +0.000 C 
ATOM     25  O   UNL     1     -58.277 -41.495 -71.751  0.00  0.00    +0.000 OA
ATOM     26  N   UNL     1     -58.960 -41.722 -72.932  0.00  0.00    +0.000 NA
ENDBRANCH  20  21
ENDBRANCH  18  20
ENDBRANCH   2  18
TORSDOF 4
