REMARK VINA RESULT:    -6.113     14.624     15.697
REMARK INTER + INTRA:          -8.507
REMARK INTER:                  -7.885
REMARK INTRA:                  -0.622
REMARK UNBOUND:                -0.965
REMARK  Name = 
REMARK  6 active torsions:
REMARK  status: ('A' for Active; 'I' for Inactive)
REMARK    1  A    between atoms: C_1  and  C_2
REMARK    2  A    between atoms: C_2  and  C_4
REMARK    3  A    between atoms: C_5  and  S_6
REMARK    4  A    between atoms: S_6  and  C_8
REMARK    5  A    between atoms: C_8  and  C_9
REMARK    6  A    between atoms: C_11  and  C_12
REMARK                            x       y       z     vdW  Elec       q    Type
REMARK                         _______ _______ _______ _____ _____    ______ ____
ROOT
ATOM      1  C   UNL     1     -53.162 -41.650 -78.030  0.00  0.00    +0.000 A 
ATOM      2  C   UNL     1     -54.488 -41.411 -78.166  0.00  0.00    +0.000 A 
ATOM      3  N   UNL     1     -55.158 -41.518 -79.366  0.00  0.00    +0.000 N 
ATOM      4  C   UNL     1     -54.504 -41.757 -80.586  0.00  0.00    +0.000 A 
ATOM      5  C   UNL     1     -55.235 -41.852 -81.787  0.00  0.00    +0.000 A 
ATOM      6 BR   UNL     1     -57.118 -41.595 -81.808  0.00  0.00    +0.000 Br
ATOM      7  C   UNL     1     -54.600 -42.140 -82.994  0.00  0.00    +0.000 A 
ATOM      8  C   UNL     1     -53.224 -42.340 -83.014  0.00  0.00    +0.000 A 
ATOM      9  C   UNL     1     -52.479 -42.275 -81.831  0.00  0.00    +0.000 A 
ATOM     10 CL   UNL     1     -50.779 -42.534 -82.021  0.00  0.00    +0.000 Cl
ATOM     11  C   UNL     1     -53.122 -42.006 -80.605  0.00  0.00    +0.000 A 
ATOM     12  C   UNL     1     -52.408 -41.948 -79.300  0.00  0.00    +0.000 A 
ATOM     13  O   UNL     1     -51.193 -42.104 -79.264  0.00  0.00    +0.000 OA
ATOM     14  H   UNL     1     -56.035 -41.000 -79.432  0.00  0.00    +0.000 HD
ENDROOT
BRANCH   1  16
ATOM     15  C   UNL     1     -51.709 -40.316 -76.334  0.00  0.00    +0.000 C 
ATOM     16  C   UNL     1     -52.409 -41.598 -76.727  0.00  0.00    +0.000 C 
ATOM     17  O   UNL     1     -52.326 -42.575 -75.987  0.00  0.00    +0.000 OA
ENDBRANCH   1  16
BRANCH   2  18
ATOM     18  S   UNL     1     -55.483 -40.759 -76.776  0.00  0.00    +0.000 S 
ATOM     19  O   UNL     1     -56.726 -40.245 -77.450  0.00  0.00    +0.000 OA
BRANCH  18  20
ATOM     20  C   UNL     1     -55.955 -42.337 -75.983  0.00  0.00    +0.000 C 
BRANCH  20  21
ATOM     21  C   UNL     1     -56.732 -42.126 -74.726  0.00  0.00    +0.000 A 
ATOM     22  C   UNL     1     -58.102 -41.794 -74.559  0.00  0.00    +0.000 A 
ATOM     23  C   UNL     1     -58.301 -41.811 -73.201  0.00  0.00    +0.000 A 
ATOM     24  C   UNL     1     -59.463 -41.573 -72.321  0.00  0.00    +0.000 C 
ATOM     25  O   UNL     1     -57.134 -42.134 -72.585  0.00  0.00    +0.000 OA
ATOM     26  N   UNL     1     -56.149 -42.339 -73.537  0.00  0.00    +0.000 NA
ENDBRANCH  20  21
ENDBRANCH  18  20
ENDBRANCH   2  18
TORSDOF 4
