REMARK VINA RESULT:    -5.921     15.569     17.924
REMARK INTER + INTRA:          -8.808
REMARK INTER:                  -7.970
REMARK INTRA:                  -0.838
REMARK UNBOUND:                -1.155
REMARK  Name = 
REMARK  6 active torsions:
REMARK  status: ('A' for Active; 'I' for Inactive)
REMARK    1  A    between atoms: C_1  and  C_2
REMARK    2  A    between atoms: C_4  and  C_5
REMARK    3  A    between atoms: C_5  and  S_6
REMARK    4  A    between atoms: S_6  and  C_8
REMARK    5  A    between atoms: C_20  and  C_21
REMARK    6  A    between atoms: C_21  and  C_23
REMARK                            x       y       z     vdW  Elec       q    Type
REMARK                         _______ _______ _______ _____ _____    ______ ____
ROOT
ATOM      1  C   UNL     1     -54.003 -42.516 -79.497  0.00  0.00    +0.000 A 
ATOM      2  N   UNL     1     -54.465 -43.304 -78.425  0.00  0.00    +0.000 N 
ATOM      3  C   UNL     1     -55.046 -44.580 -78.663  0.00  0.00    +0.000 A 
ATOM      4  C   UNL     1     -55.167 -45.567 -77.668  0.00  0.00    +0.000 A 
ATOM      5 BR   UNL     1     -54.389 -45.329 -75.954  0.00  0.00    +0.000 Br
ATOM      6  C   UNL     1     -55.845 -46.769 -77.916  0.00  0.00    +0.000 A 
ATOM      7  C   UNL     1     -56.390 -47.007 -79.183  0.00  0.00    +0.000 A 
ATOM      8  C   UNL     1     -56.281 -46.044 -80.186  0.00  0.00    +0.000 A 
ATOM      9 CL   UNL     1     -56.923 -46.465 -81.734  0.00  0.00    +0.000 Cl
ATOM     10  C   UNL     1     -55.631 -44.831 -79.915  0.00  0.00    +0.000 A 
ATOM     11  C   UNL     1     -55.542 -43.722 -80.884  0.00  0.00    +0.000 A 
ATOM     12  O   UNL     1     -56.413 -43.527 -81.723  0.00  0.00    +0.000 OA
ATOM     13  C   UNL     1     -54.383 -42.777 -80.767  0.00  0.00    +0.000 A 
ATOM     14  H   UNL     1     -53.821 -43.286 -77.622  0.00  0.00    +0.000 HD
ENDROOT
BRANCH   1  15
ATOM     15  S   UNL     1     -52.577 -41.492 -79.044  0.00  0.00    +0.000 S 
ATOM     16  O   UNL     1     -51.395 -42.242 -79.595  0.00  0.00    +0.000 OA
BRANCH  15  17
ATOM     17  C   UNL     1     -52.405 -41.458 -77.235  0.00  0.00    +0.000 C 
BRANCH  17  21
ATOM     18  C   UNL     1     -48.936 -38.595 -74.790  0.00  0.00    +0.000 C 
ATOM     19  C   UNL     1     -50.029 -39.235 -75.544  0.00  0.00    +0.000 A 
ATOM     20  C   UNL     1     -50.318 -40.526 -75.920  0.00  0.00    +0.000 A 
ATOM     21  C   UNL     1     -51.581 -40.438 -76.547  0.00  0.00    +0.000 A 
ATOM     22  N   UNL     1     -51.990 -39.159 -76.606  0.00  0.00    +0.000 NA
ATOM     23  O   UNL     1     -51.017 -38.412 -75.977  0.00  0.00    +0.000 OA
ENDBRANCH  17  21
ENDBRANCH  15  17
ENDBRANCH   1  15
BRANCH  13  24
ATOM     24  C   UNL     1     -53.754 -42.435 -82.074  0.00  0.00    +0.000 C 
ATOM     25  O   UNL     1     -53.156 -43.282 -82.715  0.00  0.00    +0.000 OA
BRANCH  24  26
ATOM     26  C   UNL     1     -53.910 -41.066 -82.601  0.00  0.00    +0.000 C 
ATOM     27  C   UNL     1     -55.043 -40.205 -82.106  0.00  0.00    +0.000 C 
ATOM     28  C   UNL     1     -55.054 -40.705 -83.518  0.00  0.00    +0.000 C 
ENDBRANCH  24  26
ENDBRANCH  13  24
TORSDOF 5
