=
 OpenBabel09152517573D

 28 30  0  0  0  0  0  0  0  0999 V2000
  -55.6540  -42.2990  -77.3400 C   0  0  0  0  0  0  0  0  0  0  0  0
  -54.9380  -41.1090  -77.2520 N   0  0  0  0  0  0  0  0  0  0  0  0
  -53.5930  -41.0850  -76.8350 C   0  0  0  0  0  0  0  0  0  0  0  0
  -52.7360  -40.0060  -77.1260 C   0  0  0  0  0  0  0  0  0  0  0  0
  -53.3040  -38.5850  -78.2460 Br  0  0  0  0  0  0  0  0  0  0  0  0
  -51.4290  -39.9730  -76.6320 C   0  0  0  0  0  3  0  0  0  0  0  0
  -50.9570  -41.0190  -75.8450 C   0  0  0  0  0  3  0  0  0  0  0  0
  -51.7940  -42.1100  -75.5480 C   0  0  0  0  0  0  0  0  0  0  0  0
  -51.0750  -43.3790  -74.6240 Cl  0  0  0  0  0  0  0  0  0  0  0  0
  -53.1150  -42.1400  -76.0400 C   0  0  0  0  0  0  0  0  0  0  0  0
  -54.0860  -43.2290  -75.7570 C   0  0  0  0  0  0  0  0  0  0  0  0
  -53.9510  -43.9280  -74.7580 O   0  0  0  0  0  0  0  0  0  0  0  0
  -55.2520  -43.4340  -76.7200 C   0  0  0  0  0  0  0  0  0  0  0  0
  -55.2030  -40.4090  -77.9590 H   0  0  0  0  0  0  0  0  0  0  0  0
  -57.0290  -42.1680  -78.5440 S   0  0  2  0  0  0  0  0  0  0  0  0
  -56.4130  -41.4570  -79.7190 O   0  0  0  0  0  0  0  0  0  0  0  0
  -58.1950  -41.0270  -77.7260 C   0  0  0  0  0  2  0  0  0  0  0  0
  -57.9670  -40.8800  -72.5560 C   0  0  0  0  0  1  0  0  0  0  0  0
  -58.1570  -41.0860  -74.0080 C   0  0  0  0  0  0  0  0  0  0  0  0
  -57.8000  -40.3960  -75.1450 C   0  0  0  0  0  3  0  0  0  0  0  0
  -58.2840  -41.1880  -76.2260 C   0  0  0  0  0  0  0  0  0  0  0  0
  -58.9110  -42.2770  -75.7480 N   0  0  0  0  0  0  0  0  0  0  0  0
  -58.8260  -42.2100  -74.3710 O   0  0  0  0  0  0  0  0  0  0  0  0
  -55.7630  -44.8490  -76.8770 C   0  0  0  0  0  0  0  0  0  0  0  0
  -56.9470  -45.1070  -76.6620 O   0  0  0  0  0  0  0  0  0  0  0  0
  -54.8020  -45.9810  -77.2380 C   0  0  0  0  0  3  0  0  0  0  0  0
  -54.7520  -47.0510  -76.1500 C   0  0  0  0  0  1  0  0  0  0  0  0
  -55.1460  -46.6150  -78.5890 C   0  0  0  0  0  1  0  0  0  0  0  0
  1  2  1  0  0  0  0
  1 13  2  0  0  0  0
  2  3  1  0  0  0  0
  3 10  1  0  0  0  0
  4  3  2  0  0  0  0
  4  6  1  0  0  0  0
  5  4  1  0  0  0  0
  6  7  2  0  0  0  0
  7  8  1  0  0  0  0
  8  9  1  0  0  0  0
 10 11  1  0  0  0  0
 10  8  2  0  0  0  0
 11 12  2  0  0  0  0
 13 11  1  0  0  0  0
 14  2  1  0  0  0  0
 15 16  2  6  0  0  0
 15 17  1  0  0  0  0
 15  1  1  0  0  0  0
 17 21  1  0  0  0  0
 19 18  1  0  0  0  0
 20 19  2  0  0  0  0
 21 22  2  0  0  0  0
 21 20  1  0  0  0  0
 22 23  1  0  0  0  0
 23 19  1  0  0  0  0
 24 13  1  0  0  0  0
 24 25  2  0  0  0  0
 26 24  1  0  0  0  0
 26 27  1  0  0  0  0
 28 26  1  0  0  0  0
M  END
>  <MODEL>
1

>  <REMARK>
 VINA RESULT:    -6.998      0.000      0.000
 INTER + INTRA:         -10.097
 INTER:                  -9.043
 INTRA:                  -1.054
 UNBOUND:                -1.054
  Name = 
  8 active torsions:
  status: ('A' for Active; 'I' for Inactive)
    1  A    between atoms: C_1  and  C_2
    2  A    between atoms: C_4  and  C_5
    3  A    between atoms: C_5  and  S_6
    4  A    between atoms: S_6  and  C_8
    5  A    between atoms: C_20  and  C_21
    6  A    between atoms: C_21  and  C_23
    7  A    between atoms: C_23  and  C_24
    8  A    between atoms: C_23  and  C_25
                            x       y       z     vdW  Elec       q    Type
                         _______ _______ _______ _____ _____    ______ ____

>  <TORSDO>
F 5

$$$$
