REMARK VINA RESULT:    -5.405      2.754      3.355
REMARK INTER + INTRA:          -7.510
REMARK INTER:                  -6.884
REMARK INTRA:                  -0.625
REMARK UNBOUND:                -0.841
REMARK  Name = 
REMARK  6 active torsions:
REMARK  status: ('A' for Active; 'I' for Inactive)
REMARK    1  A    between atoms: C_1  and  C_2
REMARK    2  A    between atoms: C_2  and  C_4
REMARK    3  A    between atoms: C_5  and  S_6
REMARK    4  A    between atoms: S_6  and  C_8
REMARK    5  A    between atoms: C_8  and  C_9
REMARK    6  A    between atoms: C_11  and  C_12
REMARK                            x       y       z     vdW  Elec       q    Type
REMARK                         _______ _______ _______ _____ _____    ______ ____
ROOT
ATOM      1  C   UNL     1     -57.246 -39.024 -60.952  0.00  0.00    +0.000 A 
ATOM      2  C   UNL     1     -56.510 -40.037 -61.462  0.00  0.00    +0.000 A 
ATOM      3  N   UNL     1     -55.541 -39.864 -62.431  0.00  0.00    +0.000 N 
ATOM      4  C   UNL     1     -55.330 -38.640 -63.084  0.00  0.00    +0.000 A 
ATOM      5  C   UNL     1     -54.357 -38.524 -64.097  0.00  0.00    +0.000 A 
ATOM      6 BR   UNL     1     -53.352 -40.033 -64.663  0.00  0.00    +0.000 Br
ATOM      7  C   UNL     1     -54.107 -37.303 -64.715  0.00  0.00    +0.000 A 
ATOM      8  C   UNL     1     -54.820 -36.174 -64.318  0.00  0.00    +0.000 A 
ATOM      9  C   UNL     1     -55.774 -36.259 -63.296  0.00  0.00    +0.000 A 
ATOM     10 CL   UNL     1     -56.582 -34.775 -62.926  0.00  0.00    +0.000 Cl
ATOM     11  C   UNL     1     -56.019 -37.492 -62.660  0.00  0.00    +0.000 A 
ATOM     12  C   UNL     1     -57.010 -37.664 -61.557  0.00  0.00    +0.000 A 
ATOM     13  O   UNL     1     -57.666 -36.705 -61.169  0.00  0.00    +0.000 OA
ATOM     14  H   UNL     1     -55.322 -40.696 -62.983  0.00  0.00    +0.000 HD
ENDROOT
BRANCH   1  16
ATOM     15  C   UNL     1     -57.848 -39.202 -58.423  0.00  0.00    +0.000 C 
ATOM     16  C   UNL     1     -58.284 -39.186 -59.872  0.00  0.00    +0.000 C 
ATOM     17  O   UNL     1     -59.478 -39.305 -60.135  0.00  0.00    +0.000 OA
ENDBRANCH   1  16
BRANCH   2  18
ATOM     18  S   UNL     1     -56.850 -41.773 -61.022  0.00  0.00    +0.000 S 
ATOM     19  O   UNL     1     -58.262 -41.984 -61.502  0.00  0.00    +0.000 OA
BRANCH  18  20
ATOM     20  C   UNL     1     -55.773 -42.603 -62.245  0.00  0.00    +0.000 C 
BRANCH  20  21
ATOM     21  C   UNL     1     -56.503 -42.956 -63.499  0.00  0.00    +0.000 A 
ATOM     22  C   UNL     1     -56.496 -42.326 -64.771  0.00  0.00    +0.000 A 
ATOM     23  C   UNL     1     -57.349 -43.081 -65.537  0.00  0.00    +0.000 A 
ATOM     24  C   UNL     1     -57.857 -42.987 -66.917  0.00  0.00    +0.000 C 
ATOM     25  O   UNL     1     -57.802 -44.126 -64.797  0.00  0.00    +0.000 OA
ATOM     26  N   UNL     1     -57.270 -44.058 -63.522  0.00  0.00    +0.000 NA
ENDBRANCH  20  21
ENDBRANCH  18  20
ENDBRANCH   2  18
TORSDOF 4
