REMARK VINA RESULT:    -6.633     12.032     14.404
REMARK INTER + INTRA:          -9.419
REMARK INTER:                  -8.532
REMARK INTRA:                  -0.887
REMARK UNBOUND:                -1.235
REMARK  Name = 
REMARK  5 active torsions:
REMARK  status: ('A' for Active; 'I' for Inactive)
REMARK    1  A    between atoms: C_1  and  C_2
REMARK    2  A    between atoms: C_2  and  C_4
REMARK    3  A    between atoms: C_5  and  S_6
REMARK    4  A    between atoms: S_6  and  C_8
REMARK    5  A    between atoms: C_8  and  C_9
REMARK                            x       y       z     vdW  Elec       q    Type
REMARK                         _______ _______ _______ _____ _____    ______ ____
ROOT
ATOM      1  C   UNL     1     -56.341 -42.209 -76.199  0.00  0.00    +0.000 A 
ATOM      2  C   UNL     1     -55.052 -42.161 -76.609  0.00  0.00    +0.000 A 
ATOM      3  N   UNL     1     -54.683 -41.949 -77.925  0.00  0.00    +0.000 N 
ATOM      4  C   UNL     1     -55.606 -41.885 -78.980  0.00  0.00    +0.000 A 
ATOM      5  C   UNL     1     -55.178 -41.676 -80.303  0.00  0.00    +0.000 A 
ATOM      6 BR   UNL     1     -53.328 -41.549 -80.722  0.00  0.00    +0.000 Br
ATOM      7  C   UNL     1     -56.093 -41.555 -81.346  0.00  0.00    +0.000 A 
ATOM      8  C   UNL     1     -57.456 -41.636 -81.075  0.00  0.00    +0.000 A 
ATOM      9  C   UNL     1     -57.910 -41.820 -79.764  0.00  0.00    +0.000 A 
ATOM     10 CL   UNL     1     -59.628 -41.909 -79.589  0.00  0.00    +0.000 Cl
ATOM     11  C   UNL     1     -56.985 -41.924 -78.704  0.00  0.00    +0.000 A 
ATOM     12  C   UNL     1     -57.386 -42.105 -77.281  0.00  0.00    +0.000 A 
ATOM     13  O   UNL     1     -58.571 -42.208 -76.990  0.00  0.00    +0.000 OA
ATOM     14  H   UNL     1     -53.750 -42.286 -78.175  0.00  0.00    +0.000 HD
ENDROOT
BRANCH   1  16
ATOM     15  C   UNL     1     -57.022 -41.172 -73.910  0.00  0.00    +0.000 C 
ATOM     16  C   UNL     1     -56.776 -42.391 -74.770  0.00  0.00    +0.000 C 
ATOM     17  O   UNL     1     -56.912 -43.508 -74.271  0.00  0.00    +0.000 OA
ENDBRANCH   1  16
BRANCH   2  18
ATOM     18  S   UNL     1     -53.671 -42.549 -75.483  0.00  0.00    +0.000 S 
ATOM     19  O   UNL     1     -53.743 -44.048 -75.359  0.00  0.00    +0.000 OA
BRANCH  18  20
ATOM     20  C   UNL     1     -52.267 -42.201 -76.612  0.00  0.00    +0.000 C 
BRANCH  20  21
ATOM     21  C   UNL     1     -51.507 -40.945 -76.244  0.00  0.00    +0.000 A 
ATOM     22  C   UNL     1     -52.014 -39.671 -76.553  0.00  0.00    +0.000 A 
ATOM     23  C   UNL     1     -51.313 -38.515 -76.196  0.00  0.00    +0.000 A 
ATOM     24  C   UNL     1     -50.101 -38.614 -75.519  0.00  0.00    +0.000 A 
ATOM     25  C   UNL     1     -49.593 -39.870 -75.192  0.00  0.00    +0.000 A 
ATOM     26  C   UNL     1     -50.290 -41.027 -75.550  0.00  0.00    +0.000 A 
ENDBRANCH  20  21
ENDBRANCH  18  20
ENDBRANCH   2  18
TORSDOF 4
