REMARK VINA RESULT:    -4.976      4.250      5.919
REMARK INTER + INTRA:          -7.110
REMARK INTER:                  -6.359
REMARK INTRA:                  -0.750
REMARK UNBOUND:                -0.971
REMARK  Name = 
REMARK  6 active torsions:
REMARK  status: ('A' for Active; 'I' for Inactive)
REMARK    1  A    between atoms: C_1  and  C_2
REMARK    2  A    between atoms: C_2  and  C_4
REMARK    3  A    between atoms: C_5  and  S_6
REMARK    4  A    between atoms: S_6  and  C_8
REMARK    5  A    between atoms: C_8  and  C_9
REMARK    6  A    between atoms: C_11  and  C_12
REMARK                            x       y       z     vdW  Elec       q    Type
REMARK                         _______ _______ _______ _____ _____    ______ ____
ROOT
ATOM      1  C   UNL     1     -56.514 -42.158 -77.603  0.00  0.00    +0.000 A 
ATOM      2  C   UNL     1     -57.444 -41.849 -78.538  0.00  0.00    +0.000 A 
ATOM      3  N   UNL     1     -57.141 -41.640 -79.872  0.00  0.00    +0.000 N 
ATOM      4  C   UNL     1     -55.816 -41.521 -80.335  0.00  0.00    +0.000 A 
ATOM      5  C   UNL     1     -55.547 -41.202 -81.679  0.00  0.00    +0.000 A 
ATOM      6 BR   UNL     1     -56.958 -40.851 -82.902  0.00  0.00    +0.000 Br
ATOM      7  C   UNL     1     -54.238 -41.124 -82.152  0.00  0.00    +0.000 A 
ATOM      8  C   UNL     1     -53.179 -41.372 -81.285  0.00  0.00    +0.000 A 
ATOM      9  C   UNL     1     -53.421 -41.719 -79.950  0.00  0.00    +0.000 A 
ATOM     10 CL   UNL     1     -52.004 -41.966 -78.989  0.00  0.00    +0.000 Cl
ATOM     11  C   UNL     1     -54.745 -41.819 -79.477  0.00  0.00    +0.000 A 
ATOM     12  C   UNL     1     -55.087 -42.219 -78.084  0.00  0.00    +0.000 A 
ATOM     13  O   UNL     1     -54.196 -42.575 -77.324  0.00  0.00    +0.000 OA
ATOM     14  H   UNL     1     -57.823 -41.077 -80.383  0.00  0.00    +0.000 HD
ENDROOT
BRANCH   1  16
ATOM     15  C   UNL     1     -56.708 -41.264 -75.157  0.00  0.00    +0.000 C 
ATOM     16  C   UNL     1     -56.817 -42.406 -76.146  0.00  0.00    +0.000 C 
ATOM     17  O   UNL     1     -57.146 -43.520 -75.734  0.00  0.00    +0.000 OA
ENDBRANCH   1  16
BRANCH   2  18
ATOM     18  S   UNL     1     -59.187 -41.505 -78.087  0.00  0.00    +0.000 S 
ATOM     19  O   UNL     1     -59.191 -40.018 -77.849  0.00  0.00    +0.000 OA
BRANCH  18  20
ATOM     20  C   UNL     1     -59.970 -41.754 -79.720  0.00  0.00    +0.000 C 
BRANCH  20  21
ATOM     21  C   UNL     1     -60.751 -40.559 -80.170  0.00  0.00    +0.000 A 
ATOM     22  C   UNL     1     -61.923 -39.983 -79.615  0.00  0.00    +0.000 A 
ATOM     23  C   UNL     1     -62.132 -38.839 -80.347  0.00  0.00    +0.000 A 
ATOM     24  C   UNL     1     -63.123 -37.746 -80.313  0.00  0.00    +0.000 C 
ATOM     25  O   UNL     1     -61.157 -38.740 -81.294  0.00  0.00    +0.000 OA
ATOM     26  N   UNL     1     -60.288 -39.810 -81.181  0.00  0.00    +0.000 NA
ENDBRANCH  20  21
ENDBRANCH  18  20
ENDBRANCH   2  18
TORSDOF 4
