REMARK VINA RESULT:    -5.537      4.314      6.294
REMARK INTER + INTRA:          -7.673
REMARK INTER:                  -6.968
REMARK INTRA:                  -0.705
REMARK UNBOUND:                -0.841
REMARK  Name = 
REMARK  6 active torsions:
REMARK  status: ('A' for Active; 'I' for Inactive)
REMARK    1  A    between atoms: C_1  and  C_2
REMARK    2  A    between atoms: C_2  and  C_4
REMARK    3  A    between atoms: C_5  and  S_6
REMARK    4  A    between atoms: S_6  and  C_8
REMARK    5  A    between atoms: C_8  and  C_9
REMARK    6  A    between atoms: C_11  and  C_12
REMARK                            x       y       z     vdW  Elec       q    Type
REMARK                         _______ _______ _______ _____ _____    ______ ____
ROOT
ATOM      1  C   UNL     1     -56.787 -35.716 -62.688  0.00  0.00    +0.000 A 
ATOM      2  C   UNL     1     -57.152 -36.934 -62.229  0.00  0.00    +0.000 A 
ATOM      3  N   UNL     1     -58.453 -37.272 -61.911  0.00  0.00    +0.000 N 
ATOM      4  C   UNL     1     -59.499 -36.335 -61.896  0.00  0.00    +0.000 A 
ATOM      5  C   UNL     1     -60.802 -36.720 -61.523  0.00  0.00    +0.000 A 
ATOM      6 BR   UNL     1     -61.174 -38.496 -60.962  0.00  0.00    +0.000 Br
ATOM      7  C   UNL     1     -61.854 -35.810 -61.553  0.00  0.00    +0.000 A 
ATOM      8  C   UNL     1     -61.619 -34.501 -61.968  0.00  0.00    +0.000 A 
ATOM      9  C   UNL     1     -60.337 -34.103 -62.367  0.00  0.00    +0.000 A 
ATOM     10 CL   UNL     1     -60.203 -32.445 -62.845  0.00  0.00    +0.000 Cl
ATOM     11  C   UNL     1     -59.273 -35.026 -62.352  0.00  0.00    +0.000 A 
ATOM     12  C   UNL     1     -57.882 -34.684 -62.770  0.00  0.00    +0.000 A 
ATOM     13  O   UNL     1     -57.618 -33.547 -63.144  0.00  0.00    +0.000 OA
ATOM     14  H   UNL     1     -58.555 -38.050 -61.257  0.00  0.00    +0.000 HD
ENDROOT
BRANCH   1  16
ATOM     15  C   UNL     1     -54.504 -34.628 -62.060  0.00  0.00    +0.000 C 
ATOM     16  C   UNL     1     -55.379 -35.337 -63.070  0.00  0.00    +0.000 C 
ATOM     17  O   UNL     1     -54.922 -35.589 -64.182  0.00  0.00    +0.000 OA
ENDBRANCH   1  16
BRANCH   2  18
ATOM     18  S   UNL     1     -55.912 -38.210 -61.831  0.00  0.00    +0.000 S 
ATOM     19  O   UNL     1     -56.475 -38.870 -60.600  0.00  0.00    +0.000 OA
BRANCH  18  20
ATOM     20  C   UNL     1     -56.227 -39.367 -63.212  0.00  0.00    +0.000 C 
BRANCH  20  21
ATOM     21  C   UNL     1     -54.976 -39.741 -63.936  0.00  0.00    +0.000 A 
ATOM     22  C   UNL     1     -53.910 -38.928 -64.403  0.00  0.00    +0.000 A 
ATOM     23  C   UNL     1     -53.034 -39.807 -64.990  0.00  0.00    +0.000 A 
ATOM     24  C   UNL     1     -51.760 -39.667 -65.719  0.00  0.00    +0.000 C 
ATOM     25  O   UNL     1     -53.509 -41.071 -64.845  0.00  0.00    +0.000 OA
ATOM     26  N   UNL     1     -54.721 -41.037 -64.179  0.00  0.00    +0.000 NA
ENDBRANCH  20  21
ENDBRANCH  18  20
ENDBRANCH   2  18
TORSDOF 4
