REMARK VINA RESULT:    -5.532      4.183      6.283
REMARK INTER + INTRA:          -8.092
REMARK INTER:                  -7.190
REMARK INTRA:                  -0.902
REMARK UNBOUND:                -0.943
REMARK  Name = 
REMARK  6 active torsions:
REMARK  status: ('A' for Active; 'I' for Inactive)
REMARK    1  A    between atoms: C_1  and  C_2
REMARK    2  A    between atoms: C_4  and  C_5
REMARK    3  A    between atoms: C_5  and  S_6
REMARK    4  A    between atoms: S_6  and  C_8
REMARK    5  A    between atoms: C_20  and  C_21
REMARK    6  A    between atoms: C_21  and  C_23
REMARK                            x       y       z     vdW  Elec       q    Type
REMARK                         _______ _______ _______ _____ _____    ______ ____
ROOT
ATOM      1  C   UNL     1     -55.835 -43.841 -77.620  0.00  0.00    +0.000 A 
ATOM      2  N   UNL     1     -55.723 -43.734 -79.020  0.00  0.00    +0.000 N 
ATOM      3  C   UNL     1     -55.001 -42.661 -79.608  0.00  0.00    +0.000 A 
ATOM      4  C   UNL     1     -54.520 -42.692 -80.931  0.00  0.00    +0.000 A 
ATOM      5 BR   UNL     1     -54.649 -44.266 -81.982  0.00  0.00    +0.000 Br
ATOM      6  C   UNL     1     -53.909 -41.570 -81.508  0.00  0.00    +0.000 A 
ATOM      7  C   UNL     1     -53.747 -40.404 -80.750  0.00  0.00    +0.000 A 
ATOM      8  C   UNL     1     -54.214 -40.350 -79.437  0.00  0.00    +0.000 A 
ATOM      9 CL   UNL     1     -53.901 -38.892 -78.565  0.00  0.00    +0.000 Cl
ATOM     10  C   UNL     1     -54.856 -41.468 -78.883  0.00  0.00    +0.000 A 
ATOM     11  C   UNL     1     -55.456 -41.475 -77.535  0.00  0.00    +0.000 A 
ATOM     12  O   UNL     1     -55.920 -40.460 -77.030  0.00  0.00    +0.000 OA
ATOM     13  C   UNL     1     -55.560 -42.788 -76.818  0.00  0.00    +0.000 A 
ATOM     14  H   UNL     1     -55.550 -44.645 -79.467  0.00  0.00    +0.000 HD
ENDROOT
BRANCH   1  15
ATOM     15  S   UNL     1     -55.923 -45.562 -77.057  0.00  0.00    +0.000 S 
ATOM     16  O   UNL     1     -54.488 -46.011 -77.016  0.00  0.00    +0.000 OA
BRANCH  15  17
ATOM     17  C   UNL     1     -56.771 -46.567 -78.311  0.00  0.00    +0.000 C 
BRANCH  17  21
ATOM     18  C   UNL     1     -56.760 -51.660 -78.831  0.00  0.00    +0.000 C 
ATOM     19  C   UNL     1     -56.769 -50.230 -78.471  0.00  0.00    +0.000 A 
ATOM     20  C   UNL     1     -56.660 -49.055 -79.177  0.00  0.00    +0.000 A 
ATOM     21  C   UNL     1     -56.848 -48.042 -78.210  0.00  0.00    +0.000 A 
ATOM     22  N   UNL     1     -56.991 -48.579 -76.986  0.00  0.00    +0.000 NA
ATOM     23  O   UNL     1     -56.942 -49.947 -77.155  0.00  0.00    +0.000 OA
ENDBRANCH  17  21
ENDBRANCH  15  17
ENDBRANCH   1  15
BRANCH  13  24
ATOM     24  C   UNL     1     -55.171 -42.719 -75.381  0.00  0.00    +0.000 C 
ATOM     25  O   UNL     1     -56.015 -42.808 -74.506  0.00  0.00    +0.000 OA
BRANCH  24  26
ATOM     26  C   UNL     1     -53.743 -42.588 -75.036  0.00  0.00    +0.000 C 
ATOM     27  C   UNL     1     -52.697 -42.916 -76.071  0.00  0.00    +0.000 C 
ATOM     28  C   UNL     1     -52.862 -43.804 -74.875  0.00  0.00    +0.000 C 
ENDBRANCH  24  26
ENDBRANCH  13  24
TORSDOF 5
