=
 OpenBabel09162515243D

 28 31  0  0  1  0  0  0  0  0999 V2000
  -56.0640  -42.3640  -62.6640 C   0  0  2  0  0  3  0  0  0  0  0  0
  -55.1350  -43.4080  -62.8390 N   0  0  0  0  0  0  0  0  0  0  0  0
  -53.8050  -43.1290  -63.2600 C   0  0  0  0  0  0  0  0  0  0  0  0
  -52.7390  -44.0310  -63.0850 C   0  0  0  0  0  0  0  0  0  0  0  0
  -52.9670  -45.6350  -62.0980 Br  0  0  0  0  0  0  0  0  0  0  0  0
  -51.4690  -43.7640  -63.6130 C   0  0  0  0  0  3  0  0  0  0  0  0
  -51.2440  -42.5680  -64.3040 C   0  0  0  0  0  3  0  0  0  0  0  0
  -52.2840  -41.6570  -64.4890 C   0  0  0  0  0  0  0  0  0  0  0  0
  -51.8870  -40.1800  -65.2900 Cl  0  0  0  0  0  0  0  0  0  0  0  0
  -53.5610  -41.9530  -63.9860 C   0  0  0  0  0  0  0  0  0  0  0  0
  -54.7400  -41.0930  -64.2060 C   0  0  0  0  0  0  0  0  0  0  0  0
  -54.8580  -40.4070  -65.2130 O   0  0  0  0  0  0  0  0  0  0  0  0
  -55.8430  -41.1400  -63.1910 C   0  0  2  0  0  3  0  0  0  0  0  0
  -55.1930  -44.1120  -62.0900 H   0  0  0  0  0  0  0  0  0  0  0  0
  -57.2620  -42.7120  -61.3480 S   0  0  2  0  0  0  0  0  0  0  0  0
  -58.5330  -42.0660  -61.8260 O   0  0  0  0  0  0  0  0  0  0  0  0
  -56.7560  -41.8590  -59.8260 C   0  0  0  0  0  2  0  0  0  0  0  0
  -53.3270  -43.1000  -56.2320 C   0  0  0  0  0  1  0  0  0  0  0  0
  -54.2380  -42.9090  -57.3750 C   0  0  0  0  0  0  0  0  0  0  0  0
  -55.2890  -42.0640  -57.6440 C   0  0  0  0  0  3  0  0  0  0  0  0
  -55.6520  -42.3620  -58.9760 C   0  0  0  0  0  0  0  0  0  0  0  0
  -54.9090  -43.3770  -59.4520 N   0  0  0  0  0  0  0  0  0  0  0  0
  -54.0260  -43.7130  -58.4480 O   0  0  0  0  0  0  0  0  0  0  0  0
  -56.3770  -39.7980  -62.8240 C   0  0  0  0  0  0  0  0  0  0  0  0
  -57.5030  -39.4670  -63.1560 O   0  0  0  0  0  0  0  0  0  0  0  0
  -55.5390  -38.8960  -62.0120 C   0  0  0  0  0  3  0  0  0  0  0  0
  -55.9360  -37.4500  -61.8610 C   0  0  0  0  0  2  0  0  0  0  0  0
  -54.7150  -37.8040  -62.6530 C   0  0  0  0  0  2  0  0  0  0  0  0
  1 15  1  1  0  0  0
  2  1  1  0  0  0  0
  2 14  1  0  0  0  0
  3  4  1  0  0  0  0
  3  2  1  0  0  0  0
  4  5  1  0  0  0  0
  6  4  2  0  0  0  0
  7  6  1  0  0  0  0
  8  7  2  0  0  0  0
  8 10  1  0  0  0  0
  9  8  1  0  0  0  0
 10  3  2  0  0  0  0
 11 10  1  0  0  0  0
 11 13  1  0  0  0  0
 12 11  2  0  0  0  0
 13 24  1  1  0  0  0
 13  1  1  0  0  0  0
 15 16  2  6  0  0  0
 15 17  1  0  0  0  0
 17 21  1  0  0  0  0
 19 18  1  0  0  0  0
 20 19  2  0  0  0  0
 21 20  1  0  0  0  0
 22 21  2  0  0  0  0
 22 23  1  0  0  0  0
 23 19  1  0  0  0  0
 24 26  1  0  0  0  0
 25 24  2  0  0  0  0
 26 27  1  0  0  0  0
 28 26  1  0  0  0  0
 28 27  1  0  0  0  0
M  END
>  <MODEL>
1

>  <REMARK>
 VINA RESULT:    -6.698      0.000      0.000
 INTER + INTRA:          -9.811
 INTER:                  -8.656
 INTRA:                  -1.155
 UNBOUND:                -1.155
  Name = 
  6 active torsions:
  status: ('A' for Active; 'I' for Inactive)
    1  A    between atoms: C_1  and  C_2
    2  A    between atoms: C_4  and  C_5
    3  A    between atoms: C_5  and  S_6
    4  A    between atoms: S_6  and  C_8
    5  A    between atoms: C_20  and  C_21
    6  A    between atoms: C_21  and  C_23
                            x       y       z     vdW  Elec       q    Type
                         _______ _______ _______ _____ _____    ______ ____

>  <TORSDO>
F 5

$$$$
