REMARK VINA RESULT:    -5.652      3.371      4.893
REMARK INTER + INTRA:          -8.246
REMARK INTER:                  -7.372
REMARK INTRA:                  -0.874
REMARK UNBOUND:                -0.943
REMARK  Name = 
REMARK  6 active torsions:
REMARK  status: ('A' for Active; 'I' for Inactive)
REMARK    1  A    between atoms: C_1  and  C_2
REMARK    2  A    between atoms: C_4  and  C_5
REMARK    3  A    between atoms: C_5  and  S_6
REMARK    4  A    between atoms: S_6  and  C_8
REMARK    5  A    between atoms: C_20  and  C_21
REMARK    6  A    between atoms: C_21  and  C_23
REMARK                            x       y       z     vdW  Elec       q    Type
REMARK                         _______ _______ _______ _____ _____    ______ ____
ROOT
ATOM      1  C   UNL     1     -56.421 -41.345 -79.080  0.00  0.00    +0.000 A 
ATOM      2  N   UNL     1     -55.628 -41.495 -80.234  0.00  0.00    +0.000 N 
ATOM      3  C   UNL     1     -54.244 -41.800 -80.126  0.00  0.00    +0.000 A 
ATOM      4  C   UNL     1     -53.491 -42.338 -81.187  0.00  0.00    +0.000 A 
ATOM      5 BR   UNL     1     -54.323 -42.870 -82.806  0.00  0.00    +0.000 Br
ATOM      6  C   UNL     1     -52.106 -42.521 -81.074  0.00  0.00    +0.000 A 
ATOM      7  C   UNL     1     -51.459 -42.189 -79.877  0.00  0.00    +0.000 A 
ATOM      8  C   UNL     1     -52.185 -41.656 -78.812  0.00  0.00    +0.000 A 
ATOM      9 CL   UNL     1     -51.307 -41.348 -77.356  0.00  0.00    +0.000 Cl
ATOM     10  C   UNL     1     -53.565 -41.444 -78.950  0.00  0.00    +0.000 A 
ATOM     11  C   UNL     1     -54.398 -40.808 -77.911  0.00  0.00    +0.000 A 
ATOM     12  O   UNL     1     -53.942 -39.969 -77.144  0.00  0.00    +0.000 OA
ATOM     13  C   UNL     1     -55.856 -41.158 -77.867  0.00  0.00    +0.000 A 
ATOM     14  H   UNL     1     -56.113 -42.022 -80.973  0.00  0.00    +0.000 HD
ENDROOT
BRANCH   1  15
ATOM     15  S   UNL     1     -58.136 -41.870 -79.340  0.00  0.00    +0.000 S 
ATOM     16  O   UNL     1     -58.955 -40.811 -78.654  0.00  0.00    +0.000 OA
BRANCH  15  17
ATOM     17  C   UNL     1     -58.430 -43.436 -78.467  0.00  0.00    +0.000 C 
BRANCH  17  21
ATOM     18  C   UNL     1     -62.870 -43.922 -75.962  0.00  0.00    +0.000 C 
ATOM     19  C   UNL     1     -61.678 -43.909 -76.831  0.00  0.00    +0.000 A 
ATOM     20  C   UNL     1     -60.473 -43.248 -76.809  0.00  0.00    +0.000 A 
ATOM     21  C   UNL     1     -59.755 -43.781 -77.903  0.00  0.00    +0.000 A 
ATOM     22  N   UNL     1     -60.515 -44.658 -78.582  0.00  0.00    +0.000 NA
ATOM     23  O   UNL     1     -61.715 -44.735 -77.907  0.00  0.00    +0.000 OA
ENDBRANCH  17  21
ENDBRANCH  15  17
ENDBRANCH   1  15
BRANCH  13  24
ATOM     24  C   UNL     1     -56.371 -41.403 -76.490  0.00  0.00    +0.000 C 
ATOM     25  O   UNL     1     -57.093 -40.587 -75.944  0.00  0.00    +0.000 OA
BRANCH  24  26
ATOM     26  C   UNL     1     -56.031 -42.672 -75.819  0.00  0.00    +0.000 C 
ATOM     27  C   UNL     1     -56.259 -42.810 -74.336  0.00  0.00    +0.000 C 
ATOM     28  C   UNL     1     -54.860 -42.766 -74.870  0.00  0.00    +0.000 C 
ENDBRANCH  24  26
ENDBRANCH  13  24
TORSDOF 5
