REMARK VINA RESULT:    -5.448      4.485      7.110
REMARK INTER + INTRA:          -7.687
REMARK INTER:                  -6.692
REMARK INTRA:                  -0.995
REMARK UNBOUND:                -0.965
REMARK  Name = 
REMARK  6 active torsions:
REMARK  status: ('A' for Active; 'I' for Inactive)
REMARK    1  A    between atoms: C_1  and  C_2
REMARK    2  A    between atoms: C_2  and  C_4
REMARK    3  A    between atoms: C_5  and  S_6
REMARK    4  A    between atoms: S_6  and  C_8
REMARK    5  A    between atoms: C_8  and  C_9
REMARK    6  A    between atoms: C_11  and  C_12
REMARK                            x       y       z     vdW  Elec       q    Type
REMARK                         _______ _______ _______ _____ _____    ______ ____
ROOT
ATOM      1  C   UNL     1     -59.306 -38.182 -61.578  0.00  0.00    +0.000 A 
ATOM      2  C   UNL     1     -58.478 -39.178 -61.971  0.00  0.00    +0.000 A 
ATOM      3  N   UNL     1     -57.223 -38.957 -62.499  0.00  0.00    +0.000 N 
ATOM      4  C   UNL     1     -56.740 -37.673 -62.803  0.00  0.00    +0.000 A 
ATOM      5  C   UNL     1     -55.451 -37.502 -63.348  0.00  0.00    +0.000 A 
ATOM      6 BR   UNL     1     -54.353 -38.999 -63.752  0.00  0.00    +0.000 Br
ATOM      7  C   UNL     1     -54.944 -36.229 -63.605  0.00  0.00    +0.000 A 
ATOM      8  C   UNL     1     -55.718 -35.111 -63.315  0.00  0.00    +0.000 A 
ATOM      9  C   UNL     1     -56.991 -35.254 -62.752  0.00  0.00    +0.000 A 
ATOM     10 CL   UNL     1     -57.834 -33.772 -62.461  0.00  0.00    +0.000 Cl
ATOM     11  C   UNL     1     -57.499 -36.539 -62.470  0.00  0.00    +0.000 A 
ATOM     12  C   UNL     1     -58.828 -36.777 -61.845  0.00  0.00    +0.000 A 
ATOM     13  O   UNL     1     -59.556 -35.826 -61.583  0.00  0.00    +0.000 OA
ATOM     14  H   UNL     1     -56.840 -39.716 -63.064  0.00  0.00    +0.000 HD
ENDROOT
BRANCH   1  16
ATOM     15  C   UNL     1     -61.884 -38.429 -61.830  0.00  0.00    +0.000 C 
ATOM     16  C   UNL     1     -60.657 -38.387 -60.945  0.00  0.00    +0.000 C 
ATOM     17  O   UNL     1     -60.794 -38.495 -59.730  0.00  0.00    +0.000 OA
ENDBRANCH   1  16
BRANCH   2  18
ATOM     18  S   UNL     1     -59.029 -40.922 -61.980  0.00  0.00    +0.000 S 
ATOM     19  O   UNL     1     -59.893 -41.007 -63.209  0.00  0.00    +0.000 OA
BRANCH  18  20
ATOM     20  C   UNL     1     -57.448 -41.730 -62.419  0.00  0.00    +0.000 C 
BRANCH  20  21
ATOM     21  C   UNL     1     -57.405 -42.143 -63.853  0.00  0.00    +0.000 A 
ATOM     22  C   UNL     1     -57.764 -43.384 -64.444  0.00  0.00    +0.000 A 
ATOM     23  C   UNL     1     -57.611 -43.183 -65.793  0.00  0.00    +0.000 A 
ATOM     24  C   UNL     1     -57.809 -44.019 -66.994  0.00  0.00    +0.000 C 
ATOM     25  O   UNL     1     -57.193 -41.908 -66.008  0.00  0.00    +0.000 OA
ATOM     26  N   UNL     1     -57.069 -41.250 -64.796  0.00  0.00    +0.000 NA
ENDBRANCH  20  21
ENDBRANCH  18  20
ENDBRANCH   2  18
TORSDOF 4
