REMARK VINA RESULT:    -5.642     15.218     19.541
REMARK INTER + INTRA:          -7.927
REMARK INTER:                  -7.083
REMARK INTRA:                  -0.844
REMARK UNBOUND:                -0.635
REMARK  Name = 
REMARK  6 active torsions:
REMARK  status: ('A' for Active; 'I' for Inactive)
REMARK    1  A    between atoms: C_1  and  C_2
REMARK    2  A    between atoms: C_4  and  C_5
REMARK    3  A    between atoms: C_5  and  S_6
REMARK    4  A    between atoms: S_6  and  C_8
REMARK    5  A    between atoms: C_20  and  C_21
REMARK    6  A    between atoms: C_21  and  C_23
REMARK                            x       y       z     vdW  Elec       q    Type
REMARK                         _______ _______ _______ _____ _____    ______ ____
ROOT
ATOM      1  C   UNL     1     -53.569 -41.402 -82.726  0.00  0.00    +0.000 A 
ATOM      2  N   UNL     1     -54.270 -40.719 -83.738  0.00  0.00    +0.000 N 
ATOM      3  C   UNL     1     -54.150 -41.118 -85.097  0.00  0.00    +0.000 A 
ATOM      4  C   UNL     1     -55.085 -40.762 -86.088  0.00  0.00    +0.000 A 
ATOM      5 BR   UNL     1     -56.692 -39.859 -85.638  0.00  0.00    +0.000 Br
ATOM      6  C   UNL     1     -54.871 -41.083 -87.435  0.00  0.00    +0.000 A 
ATOM      7  C   UNL     1     -53.723 -41.794 -87.804  0.00  0.00    +0.000 A 
ATOM      8  C   UNL     1     -52.784 -42.159 -86.840  0.00  0.00    +0.000 A 
ATOM      9 CL   UNL     1     -51.440 -43.096 -87.386  0.00  0.00    +0.000 Cl
ATOM     10  C   UNL     1     -52.992 -41.801 -85.499  0.00  0.00    +0.000 A 
ATOM     11  C   UNL     1     -52.015 -42.068 -84.426  0.00  0.00    +0.000 A 
ATOM     12  O   UNL     1     -50.811 -42.107 -84.645  0.00  0.00    +0.000 OA
ATOM     13  C   UNL     1     -52.532 -42.215 -83.025  0.00  0.00    +0.000 A 
ATOM     14  H   UNL     1     -55.234 -40.489 -83.457  0.00  0.00    +0.000 HD
ENDROOT
BRANCH   1  15
ATOM     15  S   UNL     1     -54.463 -41.421 -81.150  0.00  0.00    +0.000 S 
ATOM     16  O   UNL     1     -55.896 -41.170 -81.535  0.00  0.00    +0.000 OA
BRANCH  15  17
ATOM     17  C   UNL     1     -53.922 -40.020 -80.127  0.00  0.00    +0.000 C 
BRANCH  17  21
ATOM     18  C   UNL     1     -51.118 -41.433 -76.083  0.00  0.00    +0.000 C 
ATOM     19  C   UNL     1     -51.943 -40.837 -77.150  0.00  0.00    +0.000 A 
ATOM     20  C   UNL     1     -52.367 -41.253 -78.390  0.00  0.00    +0.000 A 
ATOM     21  C   UNL     1     -53.215 -40.217 -78.841  0.00  0.00    +0.000 A 
ATOM     22  N   UNL     1     -53.240 -39.208 -77.953  0.00  0.00    +0.000 NA
ATOM     23  O   UNL     1     -52.445 -39.602 -76.897  0.00  0.00    +0.000 OA
ENDBRANCH  17  21
ENDBRANCH  15  17
ENDBRANCH   1  15
BRANCH  13  24
ATOM     24  C   UNL     1     -51.921 -43.350 -82.277  0.00  0.00    +0.000 C 
ATOM     25  O   UNL     1     -51.102 -43.144 -81.399  0.00  0.00    +0.000 OA
BRANCH  24  26
ATOM     26  C   UNL     1     -52.361 -44.724 -82.586  0.00  0.00    +0.000 C 
ATOM     27  C   UNL     1     -53.567 -44.937 -83.465  0.00  0.00    +0.000 C 
ATOM     28  C   UNL     1     -53.640 -45.285 -82.009  0.00  0.00    +0.000 C 
ENDBRANCH  24  26
ENDBRANCH  13  24
TORSDOF 5
