REMARK VINA RESULT:    -6.270     13.164     15.281
REMARK INTER + INTRA:          -9.004
REMARK INTER:                  -7.749
REMARK INTRA:                  -1.255
REMARK UNBOUND:                -0.901
REMARK  Name = 
REMARK  6 active torsions:
REMARK  status: ('A' for Active; 'I' for Inactive)
REMARK    1  A    between atoms: C_1  and  C_2
REMARK    2  A    between atoms: C_4  and  C_5
REMARK    3  A    between atoms: C_5  and  S_6
REMARK    4  A    between atoms: S_6  and  C_8
REMARK    5  A    between atoms: C_20  and  C_21
REMARK    6  A    between atoms: C_21  and  C_23
REMARK                            x       y       z     vdW  Elec       q    Type
REMARK                         _______ _______ _______ _____ _____    ______ ____
ROOT
ATOM      1  C   UNL     1     -55.809 -42.841 -78.701  0.00  0.00    +0.000 A 
ATOM      2  N   UNL     1     -55.810 -44.249 -78.724  0.00  0.00    +0.000 N 
ATOM      3  C   UNL     1     -55.285 -44.990 -77.629  0.00  0.00    +0.000 A 
ATOM      4  C   UNL     1     -55.595 -46.344 -77.400  0.00  0.00    +0.000 A 
ATOM      5 BR   UNL     1     -56.895 -47.242 -78.450  0.00  0.00    +0.000 Br
ATOM      6  C   UNL     1     -54.971 -47.067 -76.374  0.00  0.00    +0.000 A 
ATOM      7  C   UNL     1     -54.043 -46.429 -75.543  0.00  0.00    +0.000 A 
ATOM      8  C   UNL     1     -53.722 -45.087 -75.749  0.00  0.00    +0.000 A 
ATOM      9 CL   UNL     1     -52.621 -44.374 -74.626  0.00  0.00    +0.000 Cl
ATOM     10  C   UNL     1     -54.327 -44.384 -76.802  0.00  0.00    +0.000 A 
ATOM     11  C   UNL     1     -53.987 -42.991 -77.150  0.00  0.00    +0.000 A 
ATOM     12  O   UNL     1     -52.868 -42.533 -76.958  0.00  0.00    +0.000 OA
ATOM     13  C   UNL     1     -55.036 -42.159 -77.827  0.00  0.00    +0.000 A 
ATOM     14  H   UNL     1     -56.687 -44.632 -79.101  0.00  0.00    +0.000 HD
ENDROOT
BRANCH   1  15
ATOM     15  S   UNL     1     -57.217 -42.129 -79.594  0.00  0.00    +0.000 S 
ATOM     16  O   UNL     1     -58.282 -43.188 -79.507  0.00  0.00    +0.000 OA
BRANCH  15  17
ATOM     17  C   UNL     1     -56.786 -41.934 -81.349  0.00  0.00    +0.000 C 
BRANCH  17  21
ATOM     18  C   UNL     1     -51.900 -41.850 -82.878  0.00  0.00    +0.000 C 
ATOM     19  C   UNL     1     -53.314 -41.671 -82.501  0.00  0.00    +0.000 A 
ATOM     20  C   UNL     1     -54.301 -42.503 -82.027  0.00  0.00    +0.000 A 
ATOM     21  C   UNL     1     -55.400 -41.648 -81.787  0.00  0.00    +0.000 A 
ATOM     22  N   UNL     1     -55.111 -40.390 -82.163  0.00  0.00    +0.000 NA
ATOM     23  O   UNL     1     -53.805 -40.410 -82.607  0.00  0.00    +0.000 OA
ENDBRANCH  17  21
ENDBRANCH  15  17
ENDBRANCH   1  15
BRANCH  13  24
ATOM     24  C   UNL     1     -55.145 -40.775 -77.286  0.00  0.00    +0.000 C 
ATOM     25  O   UNL     1     -55.617 -40.578 -76.179  0.00  0.00    +0.000 OA
BRANCH  24  26
ATOM     26  C   UNL     1     -54.628 -39.653 -78.092  0.00  0.00    +0.000 C 
ATOM     27  C   UNL     1     -53.476 -39.887 -79.035  0.00  0.00    +0.000 C 
ATOM     28  C   UNL     1     -53.274 -39.047 -77.811  0.00  0.00    +0.000 C 
ENDBRANCH  24  26
ENDBRANCH  13  24
TORSDOF 5
