REMARK VINA RESULT:    -6.314      3.282      5.380
REMARK INTER + INTRA:          -9.080
REMARK INTER:                  -7.725
REMARK INTRA:                  -1.355
REMARK UNBOUND:                -0.920
REMARK  Name = 
REMARK  8 active torsions:
REMARK  status: ('A' for Active; 'I' for Inactive)
REMARK    1  A    between atoms: C_1  and  C_2
REMARK    2  A    between atoms: C_4  and  C_5
REMARK    3  A    between atoms: C_5  and  S_6
REMARK    4  A    between atoms: S_6  and  C_8
REMARK    5  A    between atoms: C_20  and  C_21
REMARK    6  A    between atoms: C_21  and  C_23
REMARK    7  A    between atoms: C_23  and  C_24
REMARK    8  A    between atoms: C_23  and  C_25
REMARK                            x       y       z     vdW  Elec       q    Type
REMARK                         _______ _______ _______ _____ _____    ______ ____
ROOT
ATOM      1  C   UNL     1     -53.911 -42.957 -77.524  0.00  0.00    +0.000 A 
ATOM      2  N   UNL     1     -54.792 -43.775 -78.224  0.00  0.00    +0.000 N 
ATOM      3  C   UNL     1     -54.703 -43.934 -79.620  0.00  0.00    +0.000 A 
ATOM      4  C   UNL     1     -55.276 -45.034 -80.288  0.00  0.00    +0.000 A 
ATOM      5 BR   UNL     1     -56.067 -46.459 -79.318  0.00  0.00    +0.000 Br
ATOM      6  C   UNL     1     -55.240 -45.127 -81.682  0.00  0.00    +0.000 A 
ATOM      7  C   UNL     1     -54.627 -44.125 -82.429  0.00  0.00    +0.000 A 
ATOM      8  C   UNL     1     -54.042 -43.022 -81.781  0.00  0.00    +0.000 A 
ATOM      9 CL   UNL     1     -53.250 -41.881 -82.808  0.00  0.00    +0.000 Cl
ATOM     10  C   UNL     1     -54.085 -42.924 -80.375  0.00  0.00    +0.000 A 
ATOM     11  C   UNL     1     -53.527 -41.786 -79.600  0.00  0.00    +0.000 A 
ATOM     12  O   UNL     1     -53.387 -40.689 -80.133  0.00  0.00    +0.000 OA
ATOM     13  C   UNL     1     -53.158 -42.011 -78.137  0.00  0.00    +0.000 A 
ATOM     14  H   UNL     1     -55.104 -44.601 -77.694  0.00  0.00    +0.000 HD
ENDROOT
BRANCH   1  15
ATOM     15  S   UNL     1     -53.759 -43.475 -75.773  0.00  0.00    +0.000 S 
ATOM     16  O   UNL     1     -54.326 -44.868 -75.760  0.00  0.00    +0.000 OA
BRANCH  15  17
ATOM     17  C   UNL     1     -54.922 -42.369 -74.906  0.00  0.00    +0.000 C 
BRANCH  17  21
ATOM     18  C   UNL     1     -58.744 -40.177 -77.626  0.00  0.00    +0.000 C 
ATOM     19  C   UNL     1     -57.751 -40.983 -76.881  0.00  0.00    +0.000 A 
ATOM     20  C   UNL     1     -56.528 -40.730 -76.303  0.00  0.00    +0.000 A 
ATOM     21  C   UNL     1     -56.131 -41.967 -75.719  0.00  0.00    +0.000 A 
ATOM     22  N   UNL     1     -57.064 -42.904 -75.960  0.00  0.00    +0.000 NA
ATOM     23  O   UNL     1     -58.070 -42.287 -76.679  0.00  0.00    +0.000 OA
ENDBRANCH  17  21
ENDBRANCH  15  17
ENDBRANCH   1  15
BRANCH  13  24
ATOM     24  C   UNL     1     -52.006 -41.197 -77.593  0.00  0.00    +0.000 C 
ATOM     25  O   UNL     1     -50.847 -41.495 -77.881  0.00  0.00    +0.000 OA
BRANCH  24  26
ATOM     26  C   UNL     1     -52.265 -40.040 -76.627  0.00  0.00    +0.000 C 
ATOM     27  C   UNL     1     -50.977 -39.557 -75.964  0.00  0.00    +0.000 C 
ATOM     28  C   UNL     1     -52.979 -38.872 -77.313  0.00  0.00    +0.000 C 
ENDBRANCH  24  26
ENDBRANCH  13  24
TORSDOF 5
