REMARK VINA RESULT:    -5.323     14.723     16.772
REMARK INTER + INTRA:          -7.249
REMARK INTER:                  -6.583
REMARK INTRA:                  -0.665
REMARK UNBOUND:                -0.681
REMARK  Name = 
REMARK  6 active torsions:
REMARK  status: ('A' for Active; 'I' for Inactive)
REMARK    1  A    between atoms: C_1  and  C_2
REMARK    2  A    between atoms: C_2  and  C_4
REMARK    3  A    between atoms: C_5  and  S_6
REMARK    4  A    between atoms: S_6  and  C_8
REMARK    5  A    between atoms: C_8  and  C_9
REMARK    6  A    between atoms: C_11  and  C_12
REMARK                            x       y       z     vdW  Elec       q    Type
REMARK                         _______ _______ _______ _____ _____    ______ ____
ROOT
ATOM      1  C   UNL     1     -64.666 -46.288 -54.222  0.00  0.00    +0.000 A 
ATOM      2  C   UNL     1     -65.730 -47.079 -53.961  0.00  0.00    +0.000 A 
ATOM      3  N   UNL     1     -66.424 -47.767 -54.936  0.00  0.00    +0.000 N 
ATOM      4  C   UNL     1     -66.173 -47.602 -56.309  0.00  0.00    +0.000 A 
ATOM      5  C   UNL     1     -66.917 -48.313 -57.269  0.00  0.00    +0.000 A 
ATOM      6 BR   UNL     1     -68.330 -49.474 -56.748  0.00  0.00    +0.000 Br
ATOM      7  C   UNL     1     -66.639 -48.193 -58.628  0.00  0.00    +0.000 A 
ATOM      8  C   UNL     1     -65.607 -47.360 -59.046  0.00  0.00    +0.000 A 
ATOM      9  C   UNL     1     -64.835 -46.658 -58.111  0.00  0.00    +0.000 A 
ATOM     10 CL   UNL     1     -63.596 -45.656 -58.785  0.00  0.00    +0.000 Cl
ATOM     11  C   UNL     1     -65.101 -46.797 -56.734  0.00  0.00    +0.000 A 
ATOM     12  C   UNL     1     -64.318 -46.103 -55.674  0.00  0.00    +0.000 A 
ATOM     13  O   UNL     1     -63.410 -45.339 -55.988  0.00  0.00    +0.000 OA
ATOM     14  H   UNL     1     -67.379 -48.032 -54.694  0.00  0.00    +0.000 HD
ENDROOT
BRANCH   1  16
ATOM     15  C   UNL     1     -64.205 -44.132 -52.838  0.00  0.00    +0.000 C 
ATOM     16  C   UNL     1     -63.859 -45.567 -53.175  0.00  0.00    +0.000 C 
ATOM     17  O   UNL     1     -62.917 -46.108 -52.595  0.00  0.00    +0.000 OA
ENDBRANCH   1  16
BRANCH   2  18
ATOM     18  S   UNL     1     -66.464 -47.165 -52.291  0.00  0.00    +0.000 S 
ATOM     19  O   UNL     1     -67.763 -47.890 -52.519  0.00  0.00    +0.000 OA
BRANCH  18  20
ATOM     20  C   UNL     1     -65.336 -48.388 -51.530  0.00  0.00    +0.000 C 
BRANCH  20  21
ATOM     21  C   UNL     1     -65.708 -49.780 -51.917  0.00  0.00    +0.000 A 
ATOM     22  C   UNL     1     -65.105 -50.637 -52.876  0.00  0.00    +0.000 A 
ATOM     23  C   UNL     1     -65.822 -51.805 -52.796  0.00  0.00    +0.000 A 
ATOM     24  C   UNL     1     -65.769 -53.104 -53.494  0.00  0.00    +0.000 C 
ATOM     25  O   UNL     1     -66.783 -51.672 -51.843  0.00  0.00    +0.000 OA
ATOM     26  N   UNL     1     -66.711 -50.408 -51.284  0.00  0.00    +0.000 NA
ENDBRANCH  20  21
ENDBRANCH  18  20
ENDBRANCH   2  18
TORSDOF 4
