REMARK VINA RESULT:    -7.183      2.155      3.949
REMARK INTER + INTRA:         -10.280
REMARK INTER:                  -9.136
REMARK INTRA:                  -1.144
REMARK UNBOUND:                -0.997
REMARK  Name = 
REMARK  8 active torsions:
REMARK  status: ('A' for Active; 'I' for Inactive)
REMARK    1  A    between atoms: C_1  and  C_2
REMARK    2  A    between atoms: C_4  and  C_5
REMARK    3  A    between atoms: C_5  and  S_6
REMARK    4  A    between atoms: S_6  and  C_8
REMARK    5  A    between atoms: C_20  and  C_21
REMARK    6  A    between atoms: C_21  and  C_23
REMARK    7  A    between atoms: C_23  and  C_24
REMARK    8  A    between atoms: C_23  and  C_25
REMARK                            x       y       z     vdW  Elec       q    Type
REMARK                         _______ _______ _______ _____ _____    ______ ____
ROOT
ATOM      1  C   UNL     1     -55.655 -42.152 -77.167  0.00  0.00    +0.000 A 
ATOM      2  N   UNL     1     -54.912 -40.975 -77.117  0.00  0.00    +0.000 N 
ATOM      3  C   UNL     1     -53.543 -40.977 -76.775  0.00  0.00    +0.000 A 
ATOM      4  C   UNL     1     -52.693 -39.898 -77.087  0.00  0.00    +0.000 A 
ATOM      5 CL   UNL     1     -53.255 -38.581 -78.055  0.00  0.00    +0.000 Cl
ATOM      6  C   UNL     1     -51.369 -39.875 -76.647  0.00  0.00    +0.000 A 
ATOM      7  C   UNL     1     -50.875 -40.938 -75.889  0.00  0.00    +0.000 A 
ATOM      8  C   UNL     1     -51.701 -42.027 -75.581  0.00  0.00    +0.000 A 
ATOM      9 CL   UNL     1     -50.960 -43.310 -74.696  0.00  0.00    +0.000 Cl
ATOM     10  C   UNL     1     -53.036 -42.039 -76.014  0.00  0.00    +0.000 A 
ATOM     11  C   UNL     1     -54.022 -43.098 -75.680  0.00  0.00    +0.000 A 
ATOM     12  O   UNL     1     -53.887 -43.735 -74.642  0.00  0.00    +0.000 OA
ATOM     13  C   UNL     1     -55.226 -43.309 -76.588  0.00  0.00    +0.000 A 
ATOM     14  H   UNL     1     -55.187 -40.285 -77.829  0.00  0.00    +0.000 HD
ENDROOT
BRANCH   1  15
ATOM     15  S   UNL     1     -57.098 -41.979 -78.292  0.00  0.00    +0.000 S 
ATOM     16  O   UNL     1     -56.564 -41.153 -79.431  0.00  0.00    +0.000 OA
BRANCH  15  17
ATOM     17  C   UNL     1     -58.243 -40.912 -77.326  0.00  0.00    +0.000 C 
BRANCH  17  21
ATOM     18  C   UNL     1     -57.760 -41.237 -72.188  0.00  0.00    +0.000 C 
ATOM     19  C   UNL     1     -58.028 -41.305 -73.641  0.00  0.00    +0.000 A 
ATOM     20  C   UNL     1     -57.743 -40.507 -74.724  0.00  0.00    +0.000 A 
ATOM     21  C   UNL     1     -58.264 -41.208 -75.847  0.00  0.00    +0.000 A 
ATOM     22  N   UNL     1     -58.856 -42.345 -75.443  0.00  0.00    +0.000 NA
ATOM     23  O   UNL     1     -58.701 -42.403 -74.072  0.00  0.00    +0.000 OA
ENDBRANCH  17  21
ENDBRANCH  15  17
ENDBRANCH   1  15
BRANCH  13  24
ATOM     24  C   UNL     1     -55.700 -44.745 -76.690  0.00  0.00    +0.000 C 
ATOM     25  O   UNL     1     -56.860 -45.034 -76.371  0.00  0.00    +0.000 OA
BRANCH  24  26
ATOM     26  C   UNL     1     -54.759 -45.886 -77.030  0.00  0.00    +0.000 C 
ATOM     27  C   UNL     1     -54.745 -46.893 -75.896  0.00  0.00    +0.000 C 
ATOM     28  C   UNL     1     -55.085 -46.499 -78.387  0.00  0.00    +0.000 C 
ENDBRANCH  24  26
ENDBRANCH  13  24
TORSDOF 5
