REMARK VINA RESULT:    -5.827     12.955     15.316
REMARK INTER + INTRA:          -8.161
REMARK INTER:                  -7.358
REMARK INTRA:                  -0.802
REMARK UNBOUND:                -0.971
REMARK  Name = 
REMARK  6 active torsions:
REMARK  status: ('A' for Active; 'I' for Inactive)
REMARK    1  A    between atoms: C_1  and  C_2
REMARK    2  A    between atoms: C_2  and  C_4
REMARK    3  A    between atoms: C_5  and  S_6
REMARK    4  A    between atoms: S_6  and  C_8
REMARK    5  A    between atoms: C_8  and  C_9
REMARK    6  A    between atoms: C_11  and  C_12
REMARK                            x       y       z     vdW  Elec       q    Type
REMARK                         _______ _______ _______ _____ _____    ______ ____
ROOT
ATOM      1  C   UNL     1     -56.227 -42.398 -63.149  0.00  0.00    +0.000 A 
ATOM      2  C   UNL     1     -56.913 -41.582 -62.314  0.00  0.00    +0.000 A 
ATOM      3  N   UNL     1     -56.696 -41.534 -60.949  0.00  0.00    +0.000 N 
ATOM      4  C   UNL     1     -55.893 -42.476 -60.278  0.00  0.00    +0.000 A 
ATOM      5  C   UNL     1     -55.780 -42.462 -58.876  0.00  0.00    +0.000 A 
ATOM      6 BR   UNL     1     -56.759 -41.215 -57.829  0.00  0.00    +0.000 Br
ATOM      7  C   UNL     1     -54.954 -43.367 -58.211  0.00  0.00    +0.000 A 
ATOM      8  C   UNL     1     -54.224 -44.297 -58.944  0.00  0.00    +0.000 A 
ATOM      9  C   UNL     1     -54.298 -44.314 -60.342  0.00  0.00    +0.000 A 
ATOM     10 CL   UNL     1     -53.358 -45.546 -61.110  0.00  0.00    +0.000 Cl
ATOM     11  C   UNL     1     -55.116 -43.385 -61.016  0.00  0.00    +0.000 A 
ATOM     12  C   UNL     1     -55.220 -43.312 -62.500  0.00  0.00    +0.000 A 
ATOM     13  O   UNL     1     -54.497 -44.019 -63.189  0.00  0.00    +0.000 OA
ATOM     14  H   UNL     1     -57.482 -41.178 -60.401  0.00  0.00    +0.000 HD
ENDROOT
BRANCH   1  16
ATOM     15  C   UNL     1     -57.479 -43.396 -65.211  0.00  0.00    +0.000 C 
ATOM     16  C   UNL     1     -56.432 -42.461 -64.642  0.00  0.00    +0.000 C 
ATOM     17  O   UNL     1     -55.763 -41.775 -65.417  0.00  0.00    +0.000 OA
ENDBRANCH   1  16
BRANCH   2  18
ATOM     18  S   UNL     1     -58.331 -40.578 -62.898  0.00  0.00    +0.000 S 
ATOM     19  O   UNL     1     -59.524 -41.405 -62.496  0.00  0.00    +0.000 OA
BRANCH  18  20
ATOM     20  C   UNL     1     -58.241 -39.207 -61.692  0.00  0.00    +0.000 C 
BRANCH  20  21
ATOM     21  C   UNL     1     -57.477 -38.031 -62.217  0.00  0.00    +0.000 A 
ATOM     22  C   UNL     1     -56.220 -37.990 -62.876  0.00  0.00    +0.000 A 
ATOM     23  C   UNL     1     -56.061 -36.676 -63.246  0.00  0.00    +0.000 A 
ATOM     24  C   UNL     1     -55.031 -35.917 -63.981  0.00  0.00    +0.000 C 
ATOM     25  O   UNL     1     -57.145 -35.967 -62.822  0.00  0.00    +0.000 OA
ATOM     26  N   UNL     1     -58.035 -36.814 -62.185  0.00  0.00    +0.000 NA
ENDBRANCH  20  21
ENDBRANCH  18  20
ENDBRANCH   2  18
TORSDOF 4
