REMARK VINA RESULT:    -6.842      2.558      4.011
REMARK INTER + INTRA:          -9.767
REMARK INTER:                  -8.883
REMARK INTRA:                  -0.884
REMARK UNBOUND:                -0.925
REMARK  Name = 
REMARK  8 active torsions:
REMARK  status: ('A' for Active; 'I' for Inactive)
REMARK    1  A    between atoms: C_1  and  C_2
REMARK    2  A    between atoms: C_4  and  C_5
REMARK    3  A    between atoms: C_5  and  S_6
REMARK    4  A    between atoms: S_6  and  C_8
REMARK    5  A    between atoms: C_20  and  C_21
REMARK    6  A    between atoms: C_21  and  C_23
REMARK    7  A    between atoms: C_23  and  C_24
REMARK    8  A    between atoms: C_23  and  C_25
REMARK                            x       y       z     vdW  Elec       q    Type
REMARK                         _______ _______ _______ _____ _____    ______ ____
ROOT
ATOM      1  C   UNL     1     -55.620 -42.747 -76.947  0.00  0.00    +0.000 A 
ATOM      2  N   UNL     1     -54.293 -43.028 -76.631  0.00  0.00    +0.000 N 
ATOM      3  C   UNL     1     -53.346 -42.002 -76.428  0.00  0.00    +0.000 A 
ATOM      4  C   UNL     1     -52.135 -42.227 -75.744  0.00  0.00    +0.000 A 
ATOM      5 CL   UNL     1     -51.823 -43.742 -74.976  0.00  0.00    +0.000 Cl
ATOM      6  C   UNL     1     -51.168 -41.226 -75.646  0.00  0.00    +0.000 A 
ATOM      7  C   UNL     1     -51.404 -39.979 -76.231  0.00  0.00    +0.000 A 
ATOM      8  C   UNL     1     -52.608 -39.732 -76.901  0.00  0.00    +0.000 A 
ATOM      9 CL   UNL     1     -52.812 -38.135 -77.523  0.00  0.00    +0.000 Cl
ATOM     10  C   UNL     1     -53.571 -40.747 -77.009  0.00  0.00    +0.000 A 
ATOM     11  C   UNL     1     -54.845 -40.624 -77.763  0.00  0.00    +0.000 A 
ATOM     12  O   UNL     1     -54.906 -39.852 -78.712  0.00  0.00    +0.000 OA
ATOM     13  C   UNL     1     -56.019 -41.524 -77.396  0.00  0.00    +0.000 A 
ATOM     14  H   UNL     1     -54.180 -43.857 -76.032  0.00  0.00    +0.000 HD
ENDROOT
BRANCH   1  15
ATOM     15  S   UNL     1     -56.728 -44.125 -76.444  0.00  0.00    +0.000 S 
ATOM     16  O   UNL     1     -55.884 -44.932 -75.495  0.00  0.00    +0.000 OA
BRANCH  15  17
ATOM     17  C   UNL     1     -56.897 -45.098 -77.995  0.00  0.00    +0.000 C 
BRANCH  17  21
ATOM     18  C   UNL     1     -60.841 -48.428 -77.690  0.00  0.00    +0.000 C 
ATOM     19  C   UNL     1     -59.591 -47.644 -77.774  0.00  0.00    +0.000 A 
ATOM     20  C   UNL     1     -59.280 -46.325 -78.015  0.00  0.00    +0.000 A 
ATOM     21  C   UNL     1     -57.864 -46.252 -77.900  0.00  0.00    +0.000 A 
ATOM     22  N   UNL     1     -57.362 -47.471 -77.638  0.00  0.00    +0.000 NA
ATOM     23  O   UNL     1     -58.440 -48.331 -77.555  0.00  0.00    +0.000 OA
ENDBRANCH  17  21
ENDBRANCH  15  17
ENDBRANCH   1  15
BRANCH  13  24
ATOM     24  C   UNL     1     -57.383 -40.892 -77.579  0.00  0.00    +0.000 C 
ATOM     25  O   UNL     1     -57.718 -39.935 -76.868  0.00  0.00    +0.000 OA
BRANCH  24  26
ATOM     26  C   UNL     1     -58.431 -41.481 -78.504  0.00  0.00    +0.000 C 
ATOM     27  C   UNL     1     -59.625 -40.548 -78.587  0.00  0.00    +0.000 C 
ATOM     28  C   UNL     1     -57.843 -41.841 -79.863  0.00  0.00    +0.000 C 
ENDBRANCH  24  26
ENDBRANCH  13  24
TORSDOF 5
