REMARK VINA RESULT:    -6.820     11.118     13.285
REMARK INTER + INTRA:          -9.734
REMARK INTER:                  -8.803
REMARK INTRA:                  -0.931
REMARK UNBOUND:                -0.920
REMARK  Name = 
REMARK  8 active torsions:
REMARK  status: ('A' for Active; 'I' for Inactive)
REMARK    1  A    between atoms: C_1  and  C_2
REMARK    2  A    between atoms: C_4  and  C_5
REMARK    3  A    between atoms: C_5  and  S_6
REMARK    4  A    between atoms: S_6  and  C_8
REMARK    5  A    between atoms: C_20  and  C_21
REMARK    6  A    between atoms: C_21  and  C_23
REMARK    7  A    between atoms: C_23  and  C_24
REMARK    8  A    between atoms: C_23  and  C_25
REMARK                            x       y       z     vdW  Elec       q    Type
REMARK                         _______ _______ _______ _____ _____    ______ ____
ROOT
ATOM      1  C   UNL     1     -57.440 -40.789 -63.096  0.00  0.00    +0.000 A 
ATOM      2  N   UNL     1     -56.970 -39.550 -62.671  0.00  0.00    +0.000 N 
ATOM      3  C   UNL     1     -55.861 -38.931 -63.281  0.00  0.00    +0.000 A 
ATOM      4  C   UNL     1     -55.622 -37.548 -63.174  0.00  0.00    +0.000 A 
ATOM      5 BR   UNL     1     -56.877 -36.404 -62.330  0.00  0.00    +0.000 Br
ATOM      6  C   UNL     1     -54.473 -36.973 -63.724  0.00  0.00    +0.000 A 
ATOM      7  C   UNL     1     -53.549 -37.770 -64.393  0.00  0.00    +0.000 A 
ATOM      8  C   UNL     1     -53.773 -39.153 -64.518  0.00  0.00    +0.000 A 
ATOM      9 CL   UNL     1     -52.594 -40.026 -65.429  0.00  0.00    +0.000 Cl
ATOM     10  C   UNL     1     -54.929 -39.735 -63.957  0.00  0.00    +0.000 A 
ATOM     11  C   UNL     1     -55.240 -41.187 -64.006  0.00  0.00    +0.000 A 
ATOM     12  O   UNL     1     -54.336 -42.005 -64.148  0.00  0.00    +0.000 OA
ATOM     13  C   UNL     1     -56.693 -41.627 -63.854  0.00  0.00    +0.000 A 
ATOM     14  H   UNL     1     -57.707 -38.919 -62.328  0.00  0.00    +0.000 HD
ENDROOT
BRANCH   1  15
ATOM     15  S   UNL     1     -59.214 -41.009 -62.690  0.00  0.00    +0.000 S 
ATOM     16  O   UNL     1     -59.710 -39.606 -62.473  0.00  0.00    +0.000 OA
BRANCH  15  17
ATOM     17  C   UNL     1     -59.171 -41.864 -61.078  0.00  0.00    +0.000 C 
BRANCH  17  21
ATOM     18  C   UNL     1     -61.591 -46.436 -61.267  0.00  0.00    +0.000 C 
ATOM     19  C   UNL     1     -61.060 -45.066 -61.098  0.00  0.00    +0.000 A 
ATOM     20  C   UNL     1     -59.881 -44.431 -61.419  0.00  0.00    +0.000 A 
ATOM     21  C   UNL     1     -60.057 -43.084 -60.990  0.00  0.00    +0.000 A 
ATOM     22  N   UNL     1     -61.269 -42.940 -60.426  0.00  0.00    +0.000 NA
ATOM     23  O   UNL     1     -61.889 -44.173 -60.499  0.00  0.00    +0.000 OA
ENDBRANCH  17  21
ENDBRANCH  15  17
ENDBRANCH   1  15
BRANCH  13  24
ATOM     24  C   UNL     1     -57.102 -42.886 -64.585  0.00  0.00    +0.000 C 
ATOM     25  O   UNL     1     -57.370 -43.908 -63.955  0.00  0.00    +0.000 OA
BRANCH  24  26
ATOM     26  C   UNL     1     -57.122 -42.920 -66.114  0.00  0.00    +0.000 C 
ATOM     27  C   UNL     1     -57.910 -44.115 -66.643  0.00  0.00    +0.000 C 
ATOM     28  C   UNL     1     -57.668 -41.619 -66.708  0.00  0.00    +0.000 C 
ENDBRANCH  24  26
ENDBRANCH  13  24
TORSDOF 5
