REMARK VINA RESULT:    -6.163      9.798     13.204
REMARK INTER + INTRA:          -8.270
REMARK INTER:                  -7.347
REMARK INTRA:                  -0.923
REMARK UNBOUND:                -0.667
REMARK  Name = 
REMARK  6 active torsions:
REMARK  status: ('A' for Active; 'I' for Inactive)
REMARK    1  A    between atoms: C_1  and  C_2
REMARK    2  A    between atoms: C_2  and  C_4
REMARK    3  A    between atoms: C_5  and  S_6
REMARK    4  A    between atoms: S_6  and  C_8
REMARK    5  A    between atoms: C_8  and  C_9
REMARK    6  A    between atoms: C_11  and  C_12
REMARK                            x       y       z     vdW  Elec       q    Type
REMARK                         _______ _______ _______ _____ _____    ______ ____
ROOT
ATOM      1  C   UNL     1     -55.234 -43.933 -76.308  0.00  0.00    +0.000 A 
ATOM      2  C   UNL     1     -56.338 -43.399 -76.879  0.00  0.00    +0.000 A 
ATOM      3  N   UNL     1     -57.376 -44.161 -77.379  0.00  0.00    +0.000 N 
ATOM      4  C   UNL     1     -57.339 -45.565 -77.429  0.00  0.00    +0.000 A 
ATOM      5  C   UNL     1     -58.440 -46.300 -77.910  0.00  0.00    +0.000 A 
ATOM      6 BR   UNL     1     -59.989 -45.419 -78.570  0.00  0.00    +0.000 Br
ATOM      7  C   UNL     1     -58.429 -47.693 -77.910  0.00  0.00    +0.000 A 
ATOM      8  C   UNL     1     -57.317 -48.372 -77.423  0.00  0.00    +0.000 A 
ATOM      9  C   UNL     1     -56.220 -47.666 -76.915  0.00  0.00    +0.000 A 
ATOM     10 CL   UNL     1     -54.918 -48.647 -76.339  0.00  0.00    +0.000 Cl
ATOM     11  C   UNL     1     -56.237 -46.256 -76.895  0.00  0.00    +0.000 A 
ATOM     12  C   UNL     1     -55.119 -45.432 -76.360  0.00  0.00    +0.000 A 
ATOM     13  O   UNL     1     -54.076 -45.969 -76.004  0.00  0.00    +0.000 OA
ATOM     14  H   UNL     1     -57.969 -43.705 -78.073  0.00  0.00    +0.000 HD
ENDROOT
BRANCH   1  16
ATOM     15  C   UNL     1     -53.020 -42.598 -76.564  0.00  0.00    +0.000 C 
ATOM     16  C   UNL     1     -54.123 -43.136 -75.680  0.00  0.00    +0.000 C 
ATOM     17  O   UNL     1     -54.071 -42.938 -74.467  0.00  0.00    +0.000 OA
ENDBRANCH   1  16
BRANCH   2  18
ATOM     18  S   UNL     1     -56.464 -41.607 -77.197  0.00  0.00    +0.000 S 
ATOM     19  O   UNL     1     -56.763 -41.535 -78.671  0.00  0.00    +0.000 OA
BRANCH  18  20
ATOM     20  C   UNL     1     -58.043 -41.258 -76.344  0.00  0.00    +0.000 C 
BRANCH  20  21
ATOM     21  C   UNL     1     -57.954 -41.547 -74.880  0.00  0.00    +0.000 A 
ATOM     22  C   UNL     1     -56.958 -41.150 -73.948  0.00  0.00    +0.000 A 
ATOM     23  C   UNL     1     -57.408 -41.619 -72.740  0.00  0.00    +0.000 A 
ATOM     24  C   UNL     1     -56.900 -41.562 -71.356  0.00  0.00    +0.000 C 
ATOM     25  O   UNL     1     -58.594 -42.253 -72.926  0.00  0.00    +0.000 OA
ATOM     26  N   UNL     1     -58.942 -42.208 -74.264  0.00  0.00    +0.000 NA
ENDBRANCH  20  21
ENDBRANCH  18  20
ENDBRANCH   2  18
TORSDOF 4
