=
 OpenBabel09162516053D

 28 31  0  0  1  0  0  0  0  0999 V2000
  -55.3440  -43.2750  -77.5230 C   0  0  2  0  0  3  0  0  0  0  0  0
  -54.0640  -43.4250  -76.9530 N   0  0  0  0  0  0  0  0  0  0  0  0
  -53.2560  -42.2880  -76.6800 C   0  0  0  0  0  0  0  0  0  0  0  0
  -52.1720  -42.3140  -75.7820 C   0  0  0  0  0  0  0  0  0  0  0  0
  -51.8170  -43.8460  -74.7210 Br  0  0  0  0  0  0  0  0  0  0  0  0
  -51.3340  -41.2020  -75.6240 C   0  0  0  0  0  3  0  0  0  0  0  0
  -51.5910  -40.0330  -76.3490 C   0  0  0  0  0  3  0  0  0  0  0  0
  -52.6600  -39.9820  -77.2440 C   0  0  0  0  0  0  0  0  0  0  0  0
  -52.9360  -38.4720  -78.0350 Cl  0  0  0  0  0  0  0  0  0  0  0  0
  -53.4700  -41.1140  -77.4190 C   0  0  0  0  0  0  0  0  0  0  0  0
  -54.5690  -41.1830  -78.4030 C   0  0  0  0  0  0  0  0  0  0  0  0
  -54.5350  -40.5510  -79.4510 O   0  0  0  0  0  0  0  0  0  0  0  0
  -55.7070  -42.1190  -78.1210 C   0  0  2  0  0  3  0  0  0  0  0  0
  -54.0520  -44.1320  -76.2060 H   0  0  0  0  0  0  0  0  0  0  0  0
  -56.5050  -44.5530  -76.9740 S   0  0  2  0  0  0  0  0  0  0  0  0
  -57.2100  -43.9310  -75.7990 O   0  0  0  0  0  0  0  0  0  0  0  0
  -55.5790  -45.9880  -76.3550 C   0  0  0  0  0  2  0  0  0  0  0  0
  -57.6920  -50.4010  -77.8660 C   0  0  0  0  0  1  0  0  0  0  0  0
  -56.9070  -49.2450  -77.3940 C   0  0  0  0  0  0  0  0  0  0  0  0
  -57.1330  -47.8910  -77.3130 C   0  0  0  0  0  3  0  0  0  0  0  0
  -55.9870  -47.3770  -76.6680 C   0  0  0  0  0  0  0  0  0  0  0  0
  -55.0950  -48.3570  -76.4400 N   0  0  0  0  0  0  0  0  0  0  0  0
  -55.6760  -49.5230  -76.8950 O   0  0  0  0  0  0  0  0  0  0  0  0
  -57.0480  -41.5300  -78.3970 C   0  0  0  0  0  0  0  0  0  0  0  0
  -57.7330  -41.9500  -79.3130 O   0  0  0  0  0  0  0  0  0  0  0  0
  -57.5520  -40.4640  -77.5110 C   0  0  0  0  0  3  0  0  0  0  0  0
  -57.1210  -40.4340  -76.0670 C   0  0  0  0  0  2  0  0  0  0  0  0
  -58.5420  -40.7630  -76.4090 C   0  0  0  0  0  2  0  0  0  0  0  0
  1 15  1  1  0  0  0
  1  2  1  0  0  0  0
  2  3  1  0  0  0  0
  2 14  1  0  0  0  0
  3  4  1  0  0  0  0
  4  6  2  0  0  0  0
  4  5  1  0  0  0  0
  7  6  1  0  0  0  0
  8  7  2  0  0  0  0
  9  8  1  0  0  0  0
 10  8  1  0  0  0  0
 10  3  2  0  0  0  0
 11 13  1  0  0  0  0
 11 10  1  0  0  0  0
 12 11  2  0  0  0  0
 13 24  1  1  0  0  0
 13  1  1  0  0  0  0
 15 17  1  0  0  0  0
 15 16  2  1  0  0  0
 18 19  1  0  0  0  0
 19 20  2  0  0  0  0
 19 23  1  0  0  0  0
 20 21  1  0  0  0  0
 21 22  2  0  0  0  0
 21 17  1  0  0  0  0
 23 22  1  0  0  0  0
 24 26  1  0  0  0  0
 25 24  2  0  0  0  0
 26 28  1  0  0  0  0
 26 27  1  0  0  0  0
 28 27  1  0  0  0  0
M  END
>  <MODEL>
1

>  <REMARK>
 VINA RESULT:    -6.764      0.000      0.000
 INTER + INTRA:          -9.640
 INTER:                  -8.741
 INTRA:                  -0.899
 UNBOUND:                -0.899
  Name = 
  6 active torsions:
  status: ('A' for Active; 'I' for Inactive)
    1  A    between atoms: C_1  and  C_2
    2  A    between atoms: C_4  and  C_5
    3  A    between atoms: C_5  and  S_6
    4  A    between atoms: S_6  and  C_8
    5  A    between atoms: C_20  and  C_21
    6  A    between atoms: C_21  and  C_23
                            x       y       z     vdW  Elec       q    Type
                         _______ _______ _______ _____ _____    ______ ____

>  <TORSDO>
F 5

$$$$
