REMARK VINA RESULT:    -5.149     11.651     14.716
REMARK INTER + INTRA:          -7.893
REMARK INTER:                  -6.738
REMARK INTRA:                  -1.154
REMARK UNBOUND:                -1.238
REMARK  Name = 
REMARK  8 active torsions:
REMARK  status: ('A' for Active; 'I' for Inactive)
REMARK    1  A    between atoms: C_1  and  C_2
REMARK    2  A    between atoms: C_4  and  C_5
REMARK    3  A    between atoms: C_5  and  S_6
REMARK    4  A    between atoms: S_6  and  C_8
REMARK    5  A    between atoms: C_20  and  C_21
REMARK    6  A    between atoms: C_21  and  C_23
REMARK    7  A    between atoms: C_23  and  C_24
REMARK    8  A    between atoms: C_23  and  C_25
REMARK                            x       y       z     vdW  Elec       q    Type
REMARK                         _______ _______ _______ _____ _____    ______ ____
ROOT
ATOM      1  C   UNL     1     -55.540 -43.621 -77.604  0.00  0.00    +0.000 A 
ATOM      2  N   UNL     1     -56.810 -44.174 -77.741  0.00  0.00    +0.000 N 
ATOM      3  C   UNL     1     -57.523 -44.097 -78.953  0.00  0.00    +0.000 A 
ATOM      4  C   UNL     1     -58.583 -44.972 -79.256  0.00  0.00    +0.000 A 
ATOM      5 BR   UNL     1     -59.010 -46.420 -78.109  0.00  0.00    +0.000 Br
ATOM      6  C   UNL     1     -59.325 -44.823 -80.432  0.00  0.00    +0.000 A 
ATOM      7  C   UNL     1     -59.014 -43.801 -81.324  0.00  0.00    +0.000 A 
ATOM      8  C   UNL     1     -57.953 -42.921 -81.044  0.00  0.00    +0.000 A 
ATOM      9 CL   UNL     1     -57.616 -41.740 -82.258  0.00  0.00    +0.000 Cl
ATOM     10  C   UNL     1     -57.210 -43.066 -79.854  0.00  0.00    +0.000 A 
ATOM     11  C   UNL     1     -56.095 -42.170 -79.452  0.00  0.00    +0.000 A 
ATOM     12  O   UNL     1     -56.034 -41.028 -79.895  0.00  0.00    +0.000 OA
ATOM     13  C   UNL     1     -55.055 -42.698 -78.468  0.00  0.00    +0.000 A 
ATOM     14  H   UNL     1     -56.956 -45.028 -77.185  0.00  0.00    +0.000 HD
ENDROOT
BRANCH   1  15
ATOM     15  S   UNL     1     -54.584 -44.454 -76.281  0.00  0.00    +0.000 S 
ATOM     16  O   UNL     1     -55.470 -45.596 -75.862  0.00  0.00    +0.000 OA
BRANCH  15  17
ATOM     17  C   UNL     1     -54.561 -43.218 -74.939  0.00  0.00    +0.000 C 
BRANCH  17  21
ATOM     18  C   UNL     1     -59.389 -42.207 -73.367  0.00  0.00    +0.000 C 
ATOM     19  C   UNL     1     -57.999 -42.295 -73.866  0.00  0.00    +0.000 A 
ATOM     20  C   UNL     1     -57.028 -43.270 -73.877  0.00  0.00    +0.000 A 
ATOM     21  C   UNL     1     -55.921 -42.683 -74.555  0.00  0.00    +0.000 A 
ATOM     22  N   UNL     1     -56.220 -41.420 -74.905  0.00  0.00    +0.000 NA
ATOM     23  O   UNL     1     -57.513 -41.185 -74.478  0.00  0.00    +0.000 OA
ENDBRANCH  17  21
ENDBRANCH  15  17
ENDBRANCH   1  15
BRANCH  13  24
ATOM     24  C   UNL     1     -53.649 -42.160 -78.612  0.00  0.00    +0.000 C 
ATOM     25  O   UNL     1     -52.946 -42.511 -79.559  0.00  0.00    +0.000 OA
BRANCH  24  26
ATOM     26  C   UNL     1     -53.065 -41.228 -77.549  0.00  0.00    +0.000 C 
ATOM     27  C   UNL     1     -51.556 -41.412 -77.402  0.00  0.00    +0.000 C 
ATOM     28  C   UNL     1     -53.396 -39.760 -77.830  0.00  0.00    +0.000 C 
ENDBRANCH  24  26
ENDBRANCH  13  24
TORSDOF 5
