REMARK VINA RESULT:    -6.279      3.636      6.533
REMARK INTER + INTRA:          -9.111
REMARK INTER:                  -7.927
REMARK INTRA:                  -1.184
REMARK UNBOUND:                -0.997
REMARK  Name = 
REMARK  8 active torsions:
REMARK  status: ('A' for Active; 'I' for Inactive)
REMARK    1  A    between atoms: C_1  and  C_2
REMARK    2  A    between atoms: C_4  and  C_5
REMARK    3  A    between atoms: C_5  and  S_6
REMARK    4  A    between atoms: S_6  and  C_8
REMARK    5  A    between atoms: C_20  and  C_21
REMARK    6  A    between atoms: C_21  and  C_23
REMARK    7  A    between atoms: C_23  and  C_24
REMARK    8  A    between atoms: C_23  and  C_25
REMARK                            x       y       z     vdW  Elec       q    Type
REMARK                         _______ _______ _______ _____ _____    ______ ____
ROOT
ATOM      1  C   UNL     1     -55.478 -43.306 -78.376  0.00  0.00    +0.000 A 
ATOM      2  N   UNL     1     -54.883 -42.083 -78.079  0.00  0.00    +0.000 N 
ATOM      3  C   UNL     1     -53.712 -41.998 -77.296  0.00  0.00    +0.000 A 
ATOM      4  C   UNL     1     -52.888 -40.856 -77.303  0.00  0.00    +0.000 A 
ATOM      5 CL   UNL     1     -53.188 -39.558 -78.404  0.00  0.00    +0.000 Cl
ATOM      6  C   UNL     1     -51.794 -40.753 -76.443  0.00  0.00    +0.000 A 
ATOM      7  C   UNL     1     -51.508 -41.799 -75.563  0.00  0.00    +0.000 A 
ATOM      8  C   UNL     1     -52.307 -42.949 -75.551  0.00  0.00    +0.000 A 
ATOM      9 CL   UNL     1     -51.814 -44.199 -74.469  0.00  0.00    +0.000 Cl
ATOM     10  C   UNL     1     -53.414 -43.042 -76.408  0.00  0.00    +0.000 A 
ATOM     11  C   UNL     1     -54.375 -44.174 -76.426  0.00  0.00    +0.000 A 
ATOM     12  O   UNL     1     -54.550 -44.826 -75.403  0.00  0.00    +0.000 OA
ATOM     13  C   UNL     1     -55.185 -44.446 -77.687  0.00  0.00    +0.000 A 
ATOM     14  H   UNL     1     -54.953 -41.396 -78.842  0.00  0.00    +0.000 HD
ENDROOT
BRANCH   1  15
ATOM     15  S   UNL     1     -56.468 -43.206 -79.922  0.00  0.00    +0.000 S 
ATOM     16  O   UNL     1     -55.763 -44.150 -80.857  0.00  0.00    +0.000 OA
BRANCH  15  17
ATOM     17  C   UNL     1     -56.133 -41.495 -80.509  0.00  0.00    +0.000 C 
BRANCH  17  21
ATOM     18  C   UNL     1     -52.869 -41.107 -84.500  0.00  0.00    +0.000 C 
ATOM     19  C   UNL     1     -53.633 -41.218 -83.239  0.00  0.00    +0.000 A 
ATOM     20  C   UNL     1     -54.961 -41.129 -82.892  0.00  0.00    +0.000 A 
ATOM     21  C   UNL     1     -54.995 -41.391 -81.493  0.00  0.00    +0.000 A 
ATOM     22  N   UNL     1     -53.748 -41.590 -81.034  0.00  0.00    +0.000 NA
ATOM     23  O   UNL     1     -52.906 -41.488 -82.124  0.00  0.00    +0.000 OA
ENDBRANCH  17  21
ENDBRANCH  15  17
ENDBRANCH   1  15
BRANCH  13  24
ATOM     24  C   UNL     1     -55.491 -45.907 -77.942  0.00  0.00    +0.000 C 
ATOM     25  O   UNL     1     -54.808 -46.546 -78.754  0.00  0.00    +0.000 OA
BRANCH  24  26
ATOM     26  C   UNL     1     -56.706 -46.596 -77.351  0.00  0.00    +0.000 C 
ATOM     27  C   UNL     1     -57.904 -46.390 -78.258  0.00  0.00    +0.000 C 
ATOM     28  C   UNL     1     -56.425 -48.060 -77.034  0.00  0.00    +0.000 C 
ENDBRANCH  24  26
ENDBRANCH  13  24
TORSDOF 5
