REMARK VINA RESULT:    -5.994      3.617      4.963
REMARK INTER + INTRA:          -8.429
REMARK INTER:                  -7.436
REMARK INTRA:                  -0.993
REMARK UNBOUND:                -0.684
REMARK  Name = 
REMARK  8 active torsions:
REMARK  status: ('A' for Active; 'I' for Inactive)
REMARK    1  A    between atoms: C_1  and  C_2
REMARK    2  A    between atoms: C_4  and  C_5
REMARK    3  A    between atoms: C_5  and  S_6
REMARK    4  A    between atoms: S_6  and  C_8
REMARK    5  A    between atoms: C_20  and  C_21
REMARK    6  A    between atoms: C_21  and  C_23
REMARK    7  A    between atoms: C_23  and  C_24
REMARK    8  A    between atoms: C_23  and  C_25
REMARK                            x       y       z     vdW  Elec       q    Type
REMARK                         _______ _______ _______ _____ _____    ______ ____
ROOT
ATOM      1  C   UNL     1     -56.989 -40.713 -62.415  0.00  0.00    +0.000 A 
ATOM      2  N   UNL     1     -56.050 -40.359 -63.379  0.00  0.00    +0.000 N 
ATOM      3  C   UNL     1     -55.588 -39.035 -63.508  0.00  0.00    +0.000 A 
ATOM      4  C   UNL     1     -54.377 -38.724 -64.156  0.00  0.00    +0.000 A 
ATOM      5 BR   UNL     1     -53.211 -40.095 -64.754  0.00  0.00    +0.000 Br
ATOM      6  C   UNL     1     -53.980 -37.396 -64.339  0.00  0.00    +0.000 A 
ATOM      7  C   UNL     1     -54.785 -36.360 -63.873  0.00  0.00    +0.000 A 
ATOM      8  C   UNL     1     -55.995 -36.650 -63.217  0.00  0.00    +0.000 A 
ATOM      9 CL   UNL     1     -56.871 -35.286 -62.621  0.00  0.00    +0.000 Cl
ATOM     10  C   UNL     1     -56.399 -37.989 -63.038  0.00  0.00    +0.000 A 
ATOM     11  C   UNL     1     -57.671 -38.398 -62.389  0.00  0.00    +0.000 A 
ATOM     12  O   UNL     1     -58.622 -37.623 -62.358  0.00  0.00    +0.000 OA
ATOM     13  C   UNL     1     -57.767 -39.798 -61.789  0.00  0.00    +0.000 A 
ATOM     14  H   UNL     1     -55.365 -41.099 -63.586  0.00  0.00    +0.000 HD
ENDROOT
BRANCH   1  15
ATOM     15  S   UNL     1     -56.866 -42.489 -61.977  0.00  0.00    +0.000 S 
ATOM     16  O   UNL     1     -55.831 -42.518 -60.885  0.00  0.00    +0.000 OA
BRANCH  15  17
ATOM     17  C   UNL     1     -56.146 -43.241 -63.476  0.00  0.00    +0.000 C 
BRANCH  17  21
ATOM     18  C   UNL     1     -59.273 -42.559 -67.545  0.00  0.00    +0.000 C 
ATOM     19  C   UNL     1     -58.244 -42.634 -66.485  0.00  0.00    +0.000 A 
ATOM     20  C   UNL     1     -58.195 -43.151 -65.210  0.00  0.00    +0.000 A 
ATOM     21  C   UNL     1     -56.867 -42.899 -64.759  0.00  0.00    +0.000 A 
ATOM     22  N   UNL     1     -56.178 -42.248 -65.712  0.00  0.00    +0.000 NA
ATOM     23  O   UNL     1     -57.037 -42.089 -66.783  0.00  0.00    +0.000 OA
ENDBRANCH  17  21
ENDBRANCH  15  17
ENDBRANCH   1  15
BRANCH  13  24
ATOM     24  C   UNL     1     -58.663 -39.960 -60.582  0.00  0.00    +0.000 C 
ATOM     25  O   UNL     1     -58.215 -39.785 -59.450  0.00  0.00    +0.000 OA
BRANCH  24  26
ATOM     26  C   UNL     1     -60.115 -40.408 -60.753  0.00  0.00    +0.000 C 
ATOM     27  C   UNL     1     -61.094 -39.385 -60.183  0.00  0.00    +0.000 C 
ATOM     28  C   UNL     1     -60.453 -40.708 -62.216  0.00  0.00    +0.000 C 
ENDBRANCH  24  26
ENDBRANCH  13  24
TORSDOF 5
