=
 OpenBabel09162515083D

 26 28  0  0  0  0  0  0  0  0999 V2000
  -55.9790  -41.3940  -77.3980 C   0  0  0  0  0  0  0  0  0  0  0  0
  -55.8190  -42.5890  -76.7860 C   0  0  0  0  0  0  0  0  0  0  0  0
  -54.6670  -42.9540  -76.1170 N   0  0  0  0  0  0  0  0  0  0  0  0
  -53.4930  -42.1810  -76.1470 C   0  0  0  0  0  0  0  0  0  0  0  0
  -52.3250  -42.6220  -75.4990 C   0  0  0  0  0  0  0  0  0  0  0  0
  -52.2640  -44.3120  -74.6320 Br  0  0  0  0  0  0  0  0  0  0  0  0
  -51.1750  -41.8360  -75.4790 C   0  0  0  0  0  3  0  0  0  0  0  0
  -51.1860  -40.5900  -76.0990 C   0  0  0  0  0  3  0  0  0  0  0  0
  -52.3400  -40.1190  -76.7290 C   0  0  0  0  0  0  0  0  0  0  0  0
  -52.1940  -38.5590  -77.4640 Cl  0  0  0  0  0  0  0  0  0  0  0  0
  -53.5100  -40.9070  -76.7390 C   0  0  0  0  0  0  0  0  0  0  0  0
  -54.7860  -40.4780  -77.3810 C   0  0  0  0  0  0  0  0  0  0  0  0
  -54.8500  -39.3870  -77.9370 O   0  0  0  0  0  0  0  0  0  0  0  0
  -54.5190  -43.9610  -76.0200 H   0  0  0  0  0  0  0  0  0  0  0  0
  -58.2000  -40.0230  -77.4180 C   0  0  0  0  0  1  0  0  0  0  0  0
  -57.2370  -40.9610  -78.1120 C   0  0  0  0  0  0  0  0  0  0  0  0
  -57.5070  -41.3580  -79.2460 O   0  0  0  0  0  0  0  0  0  0  0  0
  -57.0640  -43.9110  -76.9440 S   0  0  1  0  0  0  0  0  0  0  0  0
  -56.4350  -45.0710  -76.2190 O   0  0  0  0  0  0  0  0  0  0  0  0
  -58.3510  -43.2520  -75.8220 C   0  0  0  0  0  2  0  0  0  0  0  0
  -57.7690  -42.6700  -74.5740 C   0  0  0  0  0  0  0  0  0  0  0  0
  -57.8410  -41.3480  -74.0600 C   0  0  0  0  0  3  0  0  0  0  0  0
  -57.1210  -41.3910  -72.8910 C   0  0  0  0  0  0  0  0  0  0  0  0
  -56.7290  -40.3910  -71.8800 C   0  0  0  0  0  1  0  0  0  0  0  0
  -56.6890  -42.6620  -72.6830 O   0  0  0  0  0  0  0  0  0  0  0  0
  -57.0980  -43.4680  -73.7310 N   0  0  0  0  0  0  0  0  0  0  0  0
  1 12  1  0  0  0  0
  1  2  2  0  0  0  0
  2  3  1  0  0  0  0
  3 14  1  0  0  0  0
  4  3  1  0  0  0  0
  4  5  1  0  0  0  0
  5  7  2  0  0  0  0
  5  6  1  0  0  0  0
  8  7  1  0  0  0  0
  9  8  2  0  0  0  0
 10  9  1  0  0  0  0
 11  9  1  0  0  0  0
 11  4  2  0  0  0  0
 12 11  1  0  0  0  0
 13 12  2  0  0  0  0
 16 15  1  0  0  0  0
 16  1  1  0  0  0  0
 17 16  2  0  0  0  0
 18  2  1  0  0  0  0
 18 19  2  1  0  0  0
 18 20  1  0  0  0  0
 20 21  1  0  0  0  0
 21 22  1  0  0  0  0
 21 26  2  0  0  0  0
 22 23  2  0  0  0  0
 23 25  1  0  0  0  0
 23 24  1  0  0  0  0
 26 25  1  0  0  0  0
M  END
>  <MODEL>
1

>  <REMARK>
 VINA RESULT:    -6.765      0.000      0.000
 INTER + INTRA:          -9.063
 INTER:                  -8.347
 INTRA:                  -0.716
 UNBOUND:                -0.716
  Name = 
  6 active torsions:
  status: ('A' for Active; 'I' for Inactive)
    1  A    between atoms: C_1  and  C_2
    2  A    between atoms: C_2  and  C_4
    3  A    between atoms: C_5  and  S_6
    4  A    between atoms: S_6  and  C_8
    5  A    between atoms: C_8  and  C_9
    6  A    between atoms: C_11  and  C_12
                            x       y       z     vdW  Elec       q    Type
                         _______ _______ _______ _____ _____    ______ ____

>  <TORSDO>
F 4

$$$$
