REMARK VINA RESULT:    -6.217      2.158      2.785
REMARK INTER + INTRA:          -8.904
REMARK INTER:                  -8.239
REMARK INTRA:                  -0.665
REMARK UNBOUND:                -0.869
REMARK  Name = 
REMARK  6 active torsions:
REMARK  status: ('A' for Active; 'I' for Inactive)
REMARK    1  A    between atoms: C_1  and  C_2
REMARK    2  A    between atoms: C_4  and  C_5
REMARK    3  A    between atoms: C_5  and  S_6
REMARK    4  A    between atoms: S_6  and  C_8
REMARK    5  A    between atoms: C_20  and  C_21
REMARK    6  A    between atoms: C_21  and  C_23
REMARK                            x       y       z     vdW  Elec       q    Type
REMARK                         _______ _______ _______ _____ _____    ______ ____
ROOT
ATOM      1  C   UNL     1     -55.714 -41.860 -63.004  0.00  0.00    +0.000 A 
ATOM      2  N   UNL     1     -54.992 -43.068 -62.939  0.00  0.00    +0.000 N 
ATOM      3  C   UNL     1     -53.604 -43.099 -63.244  0.00  0.00    +0.000 A 
ATOM      4  C   UNL     1     -52.751 -44.142 -62.836  0.00  0.00    +0.000 A 
ATOM      5 BR   UNL     1     -53.366 -45.514 -61.680  0.00  0.00    +0.000 Br
ATOM      6  C   UNL     1     -51.413 -44.189 -63.252  0.00  0.00    +0.000 A 
ATOM      7  C   UNL     1     -50.904 -43.169 -64.064  0.00  0.00    +0.000 A 
ATOM      8  C   UNL     1     -51.729 -42.124 -64.479  0.00  0.00    +0.000 A 
ATOM      9 CL   UNL     1     -50.988 -40.879 -65.418  0.00  0.00    +0.000 Cl
ATOM     10  C   UNL     1     -53.076 -42.107 -64.086  0.00  0.00    +0.000 A 
ATOM     11  C   UNL     1     -54.044 -41.092 -64.544  0.00  0.00    +0.000 A 
ATOM     12  O   UNL     1     -53.943 -40.553 -65.639  0.00  0.00    +0.000 OA
ATOM     13  C   UNL     1     -55.217 -40.788 -63.659  0.00  0.00    +0.000 A 
ATOM     14  H   UNL     1     -55.248 -43.631 -62.116  0.00  0.00    +0.000 HD
ENDROOT
BRANCH   1  15
ATOM     15  S   UNL     1     -57.061 -41.788 -61.795  0.00  0.00    +0.000 S 
ATOM     16  O   UNL     1     -56.922 -43.064 -61.010  0.00  0.00    +0.000 OA
BRANCH  15  17
ATOM     17  C   UNL     1     -58.657 -41.854 -62.660  0.00  0.00    +0.000 C 
BRANCH  17  21
ATOM     18  C   UNL     1     -62.937 -39.176 -61.807  0.00  0.00    +0.000 C 
ATOM     19  C   UNL     1     -61.729 -40.020 -61.854  0.00  0.00    +0.000 A 
ATOM     20  C   UNL     1     -60.816 -40.348 -62.828  0.00  0.00    +0.000 A 
ATOM     21  C   UNL     1     -59.850 -41.132 -62.160  0.00  0.00    +0.000 A 
ATOM     22  N   UNL     1     -60.203 -41.322 -60.876  0.00  0.00    +0.000 NA
ATOM     23  O   UNL     1     -61.377 -40.623 -60.691  0.00  0.00    +0.000 OA
ENDBRANCH  17  21
ENDBRANCH  15  17
ENDBRANCH   1  15
BRANCH  13  24
ATOM     24  C   UNL     1     -55.509 -39.332 -63.532  0.00  0.00    +0.000 C 
ATOM     25  O   UNL     1     -56.647 -38.915 -63.663  0.00  0.00    +0.000 OA
BRANCH  24  26
ATOM     26  C   UNL     1     -54.407 -38.411 -63.197  0.00  0.00    +0.000 C 
ATOM     27  C   UNL     1     -54.700 -36.947 -62.992  0.00  0.00    +0.000 C 
ATOM     28  C   UNL     1     -53.914 -37.386 -64.190  0.00  0.00    +0.000 C 
ENDBRANCH  24  26
ENDBRANCH  13  24
TORSDOF 5
