REMARK VINA RESULT:    -5.088     10.478     13.449
REMARK INTER + INTRA:          -7.629
REMARK INTER:                  -6.268
REMARK INTRA:                  -1.361
REMARK UNBOUND:                -1.054
REMARK  Name = 
REMARK  8 active torsions:
REMARK  status: ('A' for Active; 'I' for Inactive)
REMARK    1  A    between atoms: C_1  and  C_2
REMARK    2  A    between atoms: C_4  and  C_5
REMARK    3  A    between atoms: C_5  and  S_6
REMARK    4  A    between atoms: S_6  and  C_8
REMARK    5  A    between atoms: C_20  and  C_21
REMARK    6  A    between atoms: C_21  and  C_23
REMARK    7  A    between atoms: C_23  and  C_24
REMARK    8  A    between atoms: C_23  and  C_25
REMARK                            x       y       z     vdW  Elec       q    Type
REMARK                         _______ _______ _______ _____ _____    ______ ____
ROOT
ATOM      1  C   UNL     1     -65.894 -41.713 -70.022  0.00  0.00    +0.000 A 
ATOM      2  N   UNL     1     -64.594 -41.700 -70.517  0.00  0.00    +0.000 N 
ATOM      3  C   UNL     1     -63.477 -41.738 -69.660  0.00  0.00    +0.000 A 
ATOM      4  C   UNL     1     -62.203 -42.140 -70.105  0.00  0.00    +0.000 A 
ATOM      5 BR   UNL     1     -61.952 -42.816 -71.859  0.00  0.00    +0.000 Br
ATOM      6  C   UNL     1     -61.096 -42.093 -69.253  0.00  0.00    +0.000 A 
ATOM      7  C   UNL     1     -61.246 -41.648 -67.943  0.00  0.00    +0.000 A 
ATOM      8  C   UNL     1     -62.511 -41.248 -67.476  0.00  0.00    +0.000 A 
ATOM      9 CL   UNL     1     -62.586 -40.784 -65.815  0.00  0.00    +0.000 Cl
ATOM     10  C   UNL     1     -63.627 -41.289 -68.337  0.00  0.00    +0.000 A 
ATOM     11  C   UNL     1     -64.996 -40.859 -67.951  0.00  0.00    +0.000 A 
ATOM     12  O   UNL     1     -65.153 -40.060 -67.033  0.00  0.00    +0.000 OA
ATOM     13  C   UNL     1     -66.182 -41.414 -68.733  0.00  0.00    +0.000 A 
ATOM     14  H   UNL     1     -64.486 -42.183 -71.420  0.00  0.00    +0.000 HD
ENDROOT
BRANCH   1  15
ATOM     15  S   UNL     1     -67.075 -42.382 -71.254  0.00  0.00    +0.000 S 
ATOM     16  O   UNL     1     -66.285 -43.444 -71.969  0.00  0.00    +0.000 OA
BRANCH  15  17
ATOM     17  C   UNL     1     -67.327 -40.981 -72.396  0.00  0.00    +0.000 C 
BRANCH  17  21
ATOM     18  C   UNL     1     -69.984 -37.134 -70.174  0.00  0.00    +0.000 C 
ATOM     19  C   UNL     1     -69.397 -38.269 -70.919  0.00  0.00    +0.000 A 
ATOM     20  C   UNL     1     -68.143 -38.830 -71.012  0.00  0.00    +0.000 A 
ATOM     21  C   UNL     1     -68.295 -39.933 -71.900  0.00  0.00    +0.000 A 
ATOM     22  N   UNL     1     -69.568 -40.003 -72.325  0.00  0.00    +0.000 NA
ATOM     23  O   UNL     1     -70.249 -38.970 -71.710  0.00  0.00    +0.000 OA
ENDBRANCH  17  21
ENDBRANCH  15  17
ENDBRANCH   1  15
BRANCH  13  24
ATOM     24  C   UNL     1     -67.477 -41.588 -67.971  0.00  0.00    +0.000 C 
ATOM     25  O   UNL     1     -67.692 -42.625 -67.345  0.00  0.00    +0.000 OA
BRANCH  24  26
ATOM     26  C   UNL     1     -68.557 -40.507 -68.025  0.00  0.00    +0.000 C 
ATOM     27  C   UNL     1     -69.895 -41.068 -68.501  0.00  0.00    +0.000 C 
ATOM     28  C   UNL     1     -68.727 -39.799 -66.679  0.00  0.00    +0.000 C 
ENDBRANCH  24  26
ENDBRANCH  13  24
TORSDOF 5
