REMARK VINA RESULT:    -5.741     14.831     15.684
REMARK INTER + INTRA:          -8.086
REMARK INTER:                  -7.217
REMARK INTRA:                  -0.870
REMARK UNBOUND:                -1.003
REMARK  Name = 
REMARK  6 active torsions:
REMARK  status: ('A' for Active; 'I' for Inactive)
REMARK    1  A    between atoms: C_1  and  C_2
REMARK    2  A    between atoms: C_2  and  C_4
REMARK    3  A    between atoms: C_5  and  S_6
REMARK    4  A    between atoms: S_6  and  C_8
REMARK    5  A    between atoms: C_8  and  C_9
REMARK    6  A    between atoms: C_11  and  C_12
REMARK                            x       y       z     vdW  Elec       q    Type
REMARK                         _______ _______ _______ _____ _____    ______ ____
ROOT
ATOM      1  C   UNL     1     -56.584 -43.427 -78.533  0.00  0.00    +0.000 A 
ATOM      2  C   UNL     1     -55.656 -42.695 -77.875  0.00  0.00    +0.000 A 
ATOM      3  N   UNL     1     -54.725 -43.250 -77.019  0.00  0.00    +0.000 N 
ATOM      4  C   UNL     1     -54.762 -44.599 -76.621  0.00  0.00    +0.000 A 
ATOM      5  C   UNL     1     -53.843 -45.106 -75.686  0.00  0.00    +0.000 A 
ATOM      6 BR   UNL     1     -52.566 -43.966 -74.858  0.00  0.00    +0.000 Br
ATOM      7  C   UNL     1     -53.843 -46.454 -75.332  0.00  0.00    +0.000 A 
ATOM      8  C   UNL     1     -54.761 -47.316 -75.917  0.00  0.00    +0.000 A 
ATOM      9  C   UNL     1     -55.675 -46.843 -76.871  0.00  0.00    +0.000 A 
ATOM     10 CL   UNL     1     -56.758 -48.037 -77.498  0.00  0.00    +0.000 Cl
ATOM     11  C   UNL     1     -55.669 -45.481 -77.235  0.00  0.00    +0.000 A 
ATOM     12  C   UNL     1     -56.609 -44.904 -78.228  0.00  0.00    +0.000 A 
ATOM     13  O   UNL     1     -57.433 -45.618 -78.773  0.00  0.00    +0.000 OA
ATOM     14  H   UNL     1     -54.324 -42.609 -76.332  0.00  0.00    +0.000 HD
ENDROOT
BRANCH   1  16
ATOM     15  C   UNL     1     -57.233 -42.681 -80.951  0.00  0.00    +0.000 C 
ATOM     16  C   UNL     1     -57.604 -42.858 -79.497  0.00  0.00    +0.000 C 
ATOM     17  O   UNL     1     -58.731 -42.529 -79.123  0.00  0.00    +0.000 OA
ENDBRANCH   1  16
BRANCH   2  18
ATOM     18  S   UNL     1     -55.671 -40.872 -77.926  0.00  0.00    +0.000 S 
ATOM     19  O   UNL     1     -56.126 -40.487 -76.543  0.00  0.00    +0.000 OA
BRANCH  18  20
ATOM     20  C   UNL     1     -53.871 -40.551 -77.973  0.00  0.00    +0.000 C 
BRANCH  20  21
ATOM     21  C   UNL     1     -53.219 -41.108 -79.199  0.00  0.00    +0.000 A 
ATOM     22  C   UNL     1     -52.124 -42.002 -79.330  0.00  0.00    +0.000 A 
ATOM     23  C   UNL     1     -51.973 -42.175 -80.685  0.00  0.00    +0.000 A 
ATOM     24  C   UNL     1     -51.025 -42.916 -81.536  0.00  0.00    +0.000 C 
ATOM     25  O   UNL     1     -52.939 -41.467 -81.328  0.00  0.00    +0.000 OA
ATOM     26  N   UNL     1     -53.725 -40.804 -80.404  0.00  0.00    +0.000 NA
ENDBRANCH  20  21
ENDBRANCH  18  20
ENDBRANCH   2  18
TORSDOF 4
