REMARK VINA RESULT:    -6.387      0.000      0.000
REMARK INTER + INTRA:          -8.923
REMARK INTER:                  -7.881
REMARK INTRA:                  -1.042
REMARK UNBOUND:                -1.042
REMARK  Name = 
REMARK  6 active torsions:
REMARK  status: ('A' for Active; 'I' for Inactive)
REMARK    1  A    between atoms: C_1  and  C_2
REMARK    2  A    between atoms: C_2  and  C_4
REMARK    3  A    between atoms: C_5  and  S_6
REMARK    4  A    between atoms: S_6  and  C_8
REMARK    5  A    between atoms: C_8  and  C_9
REMARK    6  A    between atoms: C_11  and  C_12
REMARK                            x       y       z     vdW  Elec       q    Type
REMARK                         _______ _______ _______ _____ _____    ______ ____
ROOT
ATOM      1  C   UNL     1     -55.360 -41.448 -77.751  0.00  0.00    +0.000 A 
ATOM      2  C   UNL     1     -55.034 -42.610 -77.140  0.00  0.00    +0.000 A 
ATOM      3  N   UNL     1     -53.876 -42.785 -76.409  0.00  0.00    +0.000 N 
ATOM      4  C   UNL     1     -52.877 -41.806 -76.318  0.00  0.00    +0.000 A 
ATOM      5  C   UNL     1     -51.716 -42.030 -75.550  0.00  0.00    +0.000 A 
ATOM      6 BR   UNL     1     -51.434 -43.696 -74.677  0.00  0.00    +0.000 Br
ATOM      7  C   UNL     1     -50.749 -41.043 -75.405  0.00  0.00    +0.000 A 
ATOM      8  C   UNL     1     -50.928 -39.807 -76.021  0.00  0.00    +0.000 A 
ATOM      9  C   UNL     1     -52.081 -39.551 -76.774  0.00  0.00    +0.000 A 
ATOM     10 CL   UNL     1     -52.156 -37.978 -77.488  0.00  0.00    +0.000 Cl
ATOM     11  C   UNL     1     -53.072 -40.546 -76.907  0.00  0.00    +0.000 A 
ATOM     12  C   UNL     1     -54.331 -40.351 -77.679  0.00  0.00    +0.000 A 
ATOM     13  O   UNL     1     -54.516 -39.306 -78.291  0.00  0.00    +0.000 OA
ATOM     14  H   UNL     1     -53.570 -43.750 -76.281  0.00  0.00    +0.000 HD
ENDROOT
BRANCH   1  16
ATOM     15  C   UNL     1     -57.812 -40.582 -77.786  0.00  0.00    +0.000 C 
ATOM     16  C   UNL     1     -56.641 -41.208 -78.508  0.00  0.00    +0.000 C 
ATOM     17  O   UNL     1     -56.766 -41.529 -79.688  0.00  0.00    +0.000 OA
ENDBRANCH   1  16
BRANCH   2  18
ATOM     18  S   UNL     1     -56.050 -44.109 -77.354  0.00  0.00    +0.000 S 
ATOM     19  O   UNL     1     -55.041 -45.168 -77.719  0.00  0.00    +0.000 OA
BRANCH  18  20
ATOM     20  C   UNL     1     -56.491 -44.417 -75.607  0.00  0.00    +0.000 C 
BRANCH  20  21
ATOM     21  C   UNL     1     -57.164 -43.247 -74.968  0.00  0.00    +0.000 A 
ATOM     22  C   UNL     1     -56.671 -42.315 -74.018  0.00  0.00    +0.000 A 
ATOM     23  C   UNL     1     -57.708 -41.439 -73.818  0.00  0.00    +0.000 A 
ATOM     24  C   UNL     1     -57.915 -40.260 -72.957  0.00  0.00    +0.000 C 
ATOM     25  O   UNL     1     -58.747 -41.794 -74.619  0.00  0.00    +0.000 OA
ATOM     26  N   UNL     1     -58.408 -42.920 -75.347  0.00  0.00    +0.000 NA
ENDBRANCH  20  21
ENDBRANCH  18  20
ENDBRANCH   2  18
TORSDOF 4
