REMARK VINA RESULT:    -5.863      3.940      6.089
REMARK INTER + INTRA:          -8.446
REMARK INTER:                  -7.222
REMARK INTRA:                  -1.224
REMARK UNBOUND:                -0.869
REMARK  Name = 
REMARK  6 active torsions:
REMARK  status: ('A' for Active; 'I' for Inactive)
REMARK    1  A    between atoms: C_1  and  C_2
REMARK    2  A    between atoms: C_4  and  C_5
REMARK    3  A    between atoms: C_5  and  S_6
REMARK    4  A    between atoms: S_6  and  C_8
REMARK    5  A    between atoms: C_20  and  C_21
REMARK    6  A    between atoms: C_21  and  C_23
REMARK                            x       y       z     vdW  Elec       q    Type
REMARK                         _______ _______ _______ _____ _____    ______ ____
ROOT
ATOM      1  C   UNL     1     -56.156 -40.531 -63.635  0.00  0.00    +0.000 A 
ATOM      2  N   UNL     1     -56.161 -39.140 -63.855  0.00  0.00    +0.000 N 
ATOM      3  C   UNL     1     -56.603 -38.248 -62.840  0.00  0.00    +0.000 A 
ATOM      4  C   UNL     1     -56.281 -36.878 -62.827  0.00  0.00    +0.000 A 
ATOM      5 BR   UNL     1     -55.067 -36.146 -64.088  0.00  0.00    +0.000 Br
ATOM      6  C   UNL     1     -56.828 -36.013 -61.869  0.00  0.00    +0.000 A 
ATOM      7  C   UNL     1     -57.688 -36.521 -60.888  0.00  0.00    +0.000 A 
ATOM      8  C   UNL     1     -58.020 -37.876 -60.879  0.00  0.00    +0.000 A 
ATOM      9 CL   UNL     1     -59.030 -38.416 -59.587  0.00  0.00    +0.000 Cl
ATOM     10  C   UNL     1     -57.494 -38.725 -61.866  0.00  0.00    +0.000 A 
ATOM     11  C   UNL     1     -57.855 -40.150 -61.987  0.00  0.00    +0.000 A 
ATOM     12  O   UNL     1     -58.956 -40.568 -61.649  0.00  0.00    +0.000 OA
ATOM     13  C   UNL     1     -56.859 -41.077 -62.618  0.00  0.00    +0.000 A 
ATOM     14  H   UNL     1     -55.316 -38.820 -64.348  0.00  0.00    +0.000 HD
ENDROOT
BRANCH   1  15
ATOM     15  S   UNL     1     -54.818 -41.371 -64.523  0.00  0.00    +0.000 S 
ATOM     16  O   UNL     1     -53.677 -40.392 -64.485  0.00  0.00    +0.000 OA
BRANCH  15  17
ATOM     17  C   UNL     1     -55.289 -41.589 -66.264  0.00  0.00    +0.000 C 
BRANCH  17  21
ATOM     18  C   UNL     1     -60.212 -42.257 -67.503  0.00  0.00    +0.000 C 
ATOM     19  C   UNL     1     -58.761 -42.254 -67.239  0.00  0.00    +0.000 A 
ATOM     20  C   UNL     1     -57.877 -41.345 -66.707  0.00  0.00    +0.000 A 
ATOM     21  C   UNL     1     -56.645 -42.035 -66.659  0.00  0.00    +0.000 A 
ATOM     22  N   UNL     1     -56.770 -43.261 -67.196  0.00  0.00    +0.000 NA
ATOM     23  O   UNL     1     -58.095 -43.393 -67.555  0.00  0.00    +0.000 OA
ENDBRANCH  17  21
ENDBRANCH  15  17
ENDBRANCH   1  15
BRANCH  13  24
ATOM     24  C   UNL     1     -56.704 -42.372 -61.897  0.00  0.00    +0.000 C 
ATOM     25  O   UNL     1     -56.208 -42.407 -60.785  0.00  0.00    +0.000 OA
BRANCH  24  26
ATOM     26  C   UNL     1     -57.207 -43.605 -62.533  0.00  0.00    +0.000 C 
ATOM     27  C   UNL     1     -58.159 -43.503 -63.697  0.00  0.00    +0.000 C 
ATOM     28  C   UNL     1     -58.648 -44.031 -62.383  0.00  0.00    +0.000 C 
ENDBRANCH  24  26
ENDBRANCH  13  24
TORSDOF 5
