MODEL 1
REMARK VINA RESULT:    -7.279      0.000      0.000
REMARK INTER + INTRA:         -10.534
REMARK INTER:                  -9.407
REMARK INTRA:                  -1.127
REMARK UNBOUND:                -1.127
REMARK  Name = 
REMARK  8 active torsions:
REMARK  status: ('A' for Active; 'I' for Inactive)
REMARK    1  A    between atoms: C_1  and  C_2
REMARK    2  A    between atoms: C_4  and  C_5
REMARK    3  A    between atoms: C_5  and  S_6
REMARK    4  A    between atoms: S_6  and  C_8
REMARK    5  A    between atoms: C_20  and  C_21
REMARK    6  A    between atoms: C_21  and  C_23
REMARK    7  A    between atoms: C_23  and  C_24
REMARK    8  A    between atoms: C_23  and  C_25
REMARK                            x       y       z     vdW  Elec       q    Type
REMARK                         _______ _______ _______ _____ _____    ______ ____
ROOT
ATOM      1  C   UNL     1     -55.429 -42.009 -62.921  0.00  0.00    +0.000 A 
ATOM      2  N   UNL     1     -54.682 -43.178 -63.021  0.00  0.00    +0.000 N 
ATOM      3  C   UNL     1     -53.327 -43.159 -63.404  0.00  0.00    +0.000 A 
ATOM      4  C   UNL     1     -52.452 -44.224 -63.119  0.00  0.00    +0.000 A 
ATOM      5 BR   UNL     1     -53.013 -45.687 -62.049  0.00  0.00    +0.000 Br
ATOM      6  C   UNL     1     -51.133 -44.214 -63.579  0.00  0.00    +0.000 A 
ATOM      7  C   UNL     1     -50.667 -43.137 -64.327  0.00  0.00    +0.000 A 
ATOM      8  C   UNL     1     -51.522 -42.059 -64.618  0.00  0.00    +0.000 A 
ATOM      9 CL   UNL     1     -50.812 -40.749 -65.491  0.00  0.00    +0.000 Cl
ATOM     10  C   UNL     1     -52.856 -42.073 -64.159  0.00  0.00    +0.000 A 
ATOM     11  C   UNL     1     -53.846 -41.001 -64.439  0.00  0.00    +0.000 A 
ATOM     12  O   UNL     1     -53.704 -40.272 -65.417  0.00  0.00    +0.000 OA
ATOM     13  C   UNL     1     -55.041 -40.849 -63.502  0.00  0.00    +0.000 A 
ATOM     14  H   UNL     1     -54.948 -43.903 -62.339  0.00  0.00    +0.000 HD
ENDROOT
BRANCH   1  15
ATOM     15  S   UNL     1     -56.831 -42.204 -61.757  0.00  0.00    +0.000 S 
ATOM     16  O   UNL     1     -56.235 -42.960 -60.600  0.00  0.00    +0.000 OA
BRANCH  15  17
ATOM     17  C   UNL     1     -57.967 -43.317 -62.651  0.00  0.00    +0.000 C 
BRANCH  17  21
ATOM     18  C   UNL     1     -58.213 -42.702 -67.786  0.00  0.00    +0.000 C 
ATOM     19  C   UNL     1     -58.276 -42.719 -66.308  0.00  0.00    +0.000 A 
ATOM     20  C   UNL     1     -57.786 -43.545 -65.321  0.00  0.00    +0.000 A 
ATOM     21  C   UNL     1     -58.201 -42.946 -64.097  0.00  0.00    +0.000 A 
ATOM     22  N   UNL     1     -58.917 -41.837 -64.352  0.00  0.00    +0.000 NA
ATOM     23  O   UNL     1     -58.957 -41.699 -65.727  0.00  0.00    +0.000 OA
ENDBRANCH  17  21
ENDBRANCH  15  17
ENDBRANCH   1  15
BRANCH  13  24
ATOM     24  C   UNL     1     -55.590 -39.451 -63.323  0.00  0.00    +0.000 C 
ATOM     25  O   UNL     1     -56.761 -39.205 -63.607  0.00  0.00    +0.000 OA
BRANCH  24  26
ATOM     26  C   UNL     1     -54.679 -38.318 -62.850  0.00  0.00    +0.000 C 
ATOM     27  C   UNL     1     -54.589 -37.196 -63.881  0.00  0.00    +0.000 C 
ATOM     28  C   UNL     1     -55.118 -37.759 -61.494  0.00  0.00    +0.000 C 
ENDBRANCH  24  26
ENDBRANCH  13  24
TORSDOF 5
ENDMDL
MODEL 2
REMARK VINA RESULT:    -7.205     10.221     12.733
REMARK INTER + INTRA:         -10.439
REMARK INTER:                  -9.612
REMARK INTRA:                  -0.827
REMARK UNBOUND:                -1.127
REMARK  Name = 
REMARK  8 active torsions:
REMARK  status: ('A' for Active; 'I' for Inactive)
REMARK    1  A    between atoms: C_1  and  C_2
REMARK    2  A    between atoms: C_4  and  C_5
REMARK    3  A    between atoms: C_5  and  S_6
REMARK    4  A    between atoms: S_6  and  C_8
REMARK    5  A    between atoms: C_20  and  C_21
REMARK    6  A    between atoms: C_21  and  C_23
REMARK    7  A    between atoms: C_23  and  C_24
REMARK    8  A    between atoms: C_23  and  C_25
REMARK                            x       y       z     vdW  Elec       q    Type
REMARK                         _______ _______ _______ _____ _____    ______ ____
ROOT
ATOM      1  C   UNL     1     -55.826 -42.629 -76.630  0.00  0.00    +0.000 A 
ATOM      2  N   UNL     1     -54.511 -43.001 -76.368  0.00  0.00    +0.000 N 
ATOM      3  C   UNL     1     -53.475 -42.049 -76.297  0.00  0.00    +0.000 A 
ATOM      4  C   UNL     1     -52.258 -42.315 -75.641  0.00  0.00    +0.000 A 
ATOM      5 BR   UNL     1     -52.004 -43.924 -74.670  0.00  0.00    +0.000 Br
ATOM      6  C   UNL     1     -51.217 -41.382 -75.653  0.00  0.00    +0.000 A 
ATOM      7  C   UNL     1     -51.379 -40.168 -76.314  0.00  0.00    +0.000 A 
ATOM      8  C   UNL     1     -52.590 -39.880 -76.969  0.00  0.00    +0.000 A 
ATOM      9 CL   UNL     1     -52.699 -38.316 -77.693  0.00  0.00    +0.000 Cl
ATOM     10  C   UNL     1     -53.638 -40.824 -76.964  0.00  0.00    +0.000 A 
ATOM     11  C   UNL     1     -54.940 -40.630 -77.652  0.00  0.00    +0.000 A 
ATOM     12  O   UNL     1     -55.025 -39.854 -78.599  0.00  0.00    +0.000 OA
ATOM     13  C   UNL     1     -56.147 -41.428 -77.168  0.00  0.00    +0.000 A 
ATOM     14  H   UNL     1     -54.423 -43.812 -75.740  0.00  0.00    +0.000 HD
ENDROOT
BRANCH   1  15
ATOM     15  S   UNL     1     -57.015 -43.854 -75.964  0.00  0.00    +0.000 S 
ATOM     16  O   UNL     1     -57.718 -44.376 -77.189  0.00  0.00    +0.000 OA
BRANCH  15  17
ATOM     17  C   UNL     1     -58.189 -42.827 -75.018  0.00  0.00    +0.000 C 
BRANCH  17  21
ATOM     18  C   UNL     1     -55.639 -41.509 -70.709  0.00  0.00    +0.000 C 
ATOM     19  C   UNL     1     -56.535 -41.803 -71.850  0.00  0.00    +0.000 A 
ATOM     20  C   UNL     1     -56.361 -42.292 -73.124  0.00  0.00    +0.000 A 
ATOM     21  C   UNL     1     -57.671 -42.351 -73.681  0.00  0.00    +0.000 A 
ATOM     22  N   UNL     1     -58.567 -41.899 -72.786  0.00  0.00    +0.000 NA
ATOM     23  O   UNL     1     -57.856 -41.563 -71.649  0.00  0.00    +0.000 OA
ENDBRANCH  17  21
ENDBRANCH  15  17
ENDBRANCH   1  15
BRANCH  13  24
ATOM     24  C   UNL     1     -57.501 -40.770 -77.313  0.00  0.00    +0.000 C 
ATOM     25  O   UNL     1     -57.806 -39.818 -76.595  0.00  0.00    +0.000 OA
BRANCH  24  26
ATOM     26  C   UNL     1     -58.525 -41.320 -78.305  0.00  0.00    +0.000 C 
ATOM     27  C   UNL     1     -59.661 -40.332 -78.553  0.00  0.00    +0.000 C 
ATOM     28  C   UNL     1     -57.876 -41.727 -79.631  0.00  0.00    +0.000 C 
ENDBRANCH  24  26
ENDBRANCH  13  24
TORSDOF 5
ENDMDL
MODEL 3
REMARK VINA RESULT:    -6.934     11.063     13.616
REMARK INTER + INTRA:         -10.088
REMARK INTER:                  -9.059
REMARK INTRA:                  -1.029
REMARK UNBOUND:                -1.127
REMARK  Name = 
REMARK  8 active torsions:
REMARK  status: ('A' for Active; 'I' for Inactive)
REMARK    1  A    between atoms: C_1  and  C_2
REMARK    2  A    between atoms: C_4  and  C_5
REMARK    3  A    between atoms: C_5  and  S_6
REMARK    4  A    between atoms: S_6  and  C_8
REMARK    5  A    between atoms: C_20  and  C_21
REMARK    6  A    between atoms: C_21  and  C_23
REMARK    7  A    between atoms: C_23  and  C_24
REMARK    8  A    between atoms: C_23  and  C_25
REMARK                            x       y       z     vdW  Elec       q    Type
REMARK                         _______ _______ _______ _____ _____    ______ ____
ROOT
ATOM      1  C   UNL     1     -55.693 -42.305 -77.425  0.00  0.00    +0.000 A 
ATOM      2  N   UNL     1     -54.960 -41.129 -77.298  0.00  0.00    +0.000 N 
ATOM      3  C   UNL     1     -53.626 -41.135 -76.844  0.00  0.00    +0.000 A 
ATOM      4  C   UNL     1     -52.745 -40.067 -77.093  0.00  0.00    +0.000 A 
ATOM      5 BR   UNL     1     -53.257 -38.618 -78.205  0.00  0.00    +0.000 Br
ATOM      6  C   UNL     1     -51.451 -40.064 -76.564  0.00  0.00    +0.000 A 
ATOM      7  C   UNL     1     -51.018 -41.130 -75.781  0.00  0.00    +0.000 A 
ATOM      8  C   UNL     1     -51.881 -42.211 -75.526  0.00  0.00    +0.000 A 
ATOM      9 CL   UNL     1     -51.209 -43.508 -74.604  0.00  0.00    +0.000 Cl
ATOM     10  C   UNL     1     -53.189 -42.211 -76.054  0.00  0.00    +0.000 A 
ATOM     11  C   UNL     1     -54.185 -43.287 -75.816  0.00  0.00    +0.000 A 
ATOM     12  O   UNL     1     -54.090 -44.005 -74.825  0.00  0.00    +0.000 OA
ATOM     13  C   UNL     1     -55.328 -43.456 -76.813  0.00  0.00    +0.000 A 
ATOM     14  H   UNL     1     -55.194 -40.413 -78.000  0.00  0.00    +0.000 HD
ENDROOT
BRANCH   1  15
ATOM     15  S   UNL     1     -57.032 -42.130 -78.664  0.00  0.00    +0.000 S 
ATOM     16  O   UNL     1     -56.371 -41.416 -79.811  0.00  0.00    +0.000 OA
BRANCH  15  17
ATOM     17  C   UNL     1     -58.198 -40.979 -77.861  0.00  0.00    +0.000 C 
BRANCH  17  21
ATOM     18  C   UNL     1     -58.029 -40.882 -72.687  0.00  0.00    +0.000 C 
ATOM     19  C   UNL     1     -58.211 -41.066 -74.144  0.00  0.00    +0.000 A 
ATOM     20  C   UNL     1     -57.803 -40.389 -75.270  0.00  0.00    +0.000 A 
ATOM     21  C   UNL     1     -58.315 -41.145 -76.364  0.00  0.00    +0.000 A 
ATOM     22  N   UNL     1     -59.008 -42.201 -75.902  0.00  0.00    +0.000 NA
ATOM     23  O   UNL     1     -58.937 -42.149 -74.523  0.00  0.00    +0.000 OA
ENDBRANCH  17  21
ENDBRANCH  15  17
ENDBRANCH   1  15
BRANCH  13  24
ATOM     24  C   UNL     1     -55.858 -44.859 -77.008  0.00  0.00    +0.000 C 
ATOM     25  O   UNL     1     -57.050 -45.102 -76.822  0.00  0.00    +0.000 OA
BRANCH  24  26
ATOM     26  C   UNL     1     -54.907 -46.001 -77.372  0.00  0.00    +0.000 C 
ATOM     27  C   UNL     1     -54.909 -47.099 -76.311  0.00  0.00    +0.000 C 
ATOM     28  C   UNL     1     -55.224 -46.592 -78.748  0.00  0.00    +0.000 C 
ENDBRANCH  24  26
ENDBRANCH  13  24
TORSDOF 5
ENDMDL
MODEL 4
REMARK VINA RESULT:    -6.678     10.809     13.911
REMARK INTER + INTRA:          -9.757
REMARK INTER:                  -8.583
REMARK INTRA:                  -1.174
REMARK UNBOUND:                -1.127
REMARK  Name = 
REMARK  8 active torsions:
REMARK  status: ('A' for Active; 'I' for Inactive)
REMARK    1  A    between atoms: C_1  and  C_2
REMARK    2  A    between atoms: C_4  and  C_5
REMARK    3  A    between atoms: C_5  and  S_6
REMARK    4  A    between atoms: S_6  and  C_8
REMARK    5  A    between atoms: C_20  and  C_21
REMARK    6  A    between atoms: C_21  and  C_23
REMARK    7  A    between atoms: C_23  and  C_24
REMARK    8  A    between atoms: C_23  and  C_25
REMARK                            x       y       z     vdW  Elec       q    Type
REMARK                         _______ _______ _______ _____ _____    ______ ____
ROOT
ATOM      1  C   UNL     1     -54.563 -43.147 -75.716  0.00  0.00    +0.000 A 
ATOM      2  N   UNL     1     -55.096 -42.452 -74.634  0.00  0.00    +0.000 N 
ATOM      3  C   UNL     1     -56.482 -42.421 -74.386  0.00  0.00    +0.000 A 
ATOM      4  C   UNL     1     -57.010 -42.103 -73.120  0.00  0.00    +0.000 A 
ATOM      5 BR   UNL     1     -55.872 -41.855 -71.623  0.00  0.00    +0.000 Br
ATOM      6  C   UNL     1     -58.390 -42.003 -72.922  0.00  0.00    +0.000 A 
ATOM      7  C   UNL     1     -59.262 -42.225 -73.983  0.00  0.00    +0.000 A 
ATOM      8  C   UNL     1     -58.756 -42.551 -75.254  0.00  0.00    +0.000 A 
ATOM      9 CL   UNL     1     -59.935 -42.873 -76.473  0.00  0.00    +0.000 Cl
ATOM     10  C   UNL     1     -57.363 -42.645 -75.457  0.00  0.00    +0.000 A 
ATOM     11  C   UNL     1     -56.729 -42.951 -76.765  0.00  0.00    +0.000 A 
ATOM     12  O   UNL     1     -57.330 -42.719 -77.809  0.00  0.00    +0.000 OA
ATOM     13  C   UNL     1     -55.318 -43.532 -76.773  0.00  0.00    +0.000 A 
ATOM     14  H   UNL     1     -54.488 -42.444 -73.803  0.00  0.00    +0.000 HD
ENDROOT
BRANCH   1  15
ATOM     15  S   UNL     1     -52.824 -43.636 -75.409  0.00  0.00    +0.000 S 
ATOM     16  O   UNL     1     -52.784 -43.916 -73.932  0.00  0.00    +0.000 OA
BRANCH  15  17
ATOM     17  C   UNL     1     -51.893 -42.100 -75.732  0.00  0.00    +0.000 C 
BRANCH  17  21
ATOM     18  C   UNL     1     -53.883 -38.871 -79.255  0.00  0.00    +0.000 C 
ATOM     19  C   UNL     1     -53.242 -39.902 -78.409  0.00  0.00    +0.000 A 
ATOM     20  C   UNL     1     -53.030 -40.060 -77.059  0.00  0.00    +0.000 A 
ATOM     21  C   UNL     1     -52.370 -41.316 -76.932  0.00  0.00    +0.000 A 
ATOM     22  N   UNL     1     -52.184 -41.858 -78.149  0.00  0.00    +0.000 NA
ATOM     23  O   UNL     1     -52.731 -40.977 -79.062  0.00  0.00    +0.000 OA
ENDBRANCH  17  21
ENDBRANCH  15  17
ENDBRANCH   1  15
BRANCH  13  24
ATOM     24  C   UNL     1     -54.975 -44.468 -77.910  0.00  0.00    +0.000 C 
ATOM     25  O   UNL     1     -54.750 -44.021 -79.033  0.00  0.00    +0.000 OA
BRANCH  24  26
ATOM     26  C   UNL     1     -54.970 -45.982 -77.690  0.00  0.00    +0.000 C 
ATOM     27  C   UNL     1     -56.046 -46.413 -76.696  0.00  0.00    +0.000 C 
ATOM     28  C   UNL     1     -55.123 -46.751 -79.005  0.00  0.00    +0.000 C 
ENDBRANCH  24  26
ENDBRANCH  13  24
TORSDOF 5
ENDMDL
MODEL 5
REMARK VINA RESULT:    -6.615      3.334      5.414
REMARK INTER + INTRA:          -9.676
REMARK INTER:                  -8.768
REMARK INTRA:                  -0.908
REMARK UNBOUND:                -1.127
REMARK  Name = 
REMARK  8 active torsions:
REMARK  status: ('A' for Active; 'I' for Inactive)
REMARK    1  A    between atoms: C_1  and  C_2
REMARK    2  A    between atoms: C_4  and  C_5
REMARK    3  A    between atoms: C_5  and  S_6
REMARK    4  A    between atoms: S_6  and  C_8
REMARK    5  A    between atoms: C_20  and  C_21
REMARK    6  A    between atoms: C_21  and  C_23
REMARK    7  A    between atoms: C_23  and  C_24
REMARK    8  A    between atoms: C_23  and  C_25
REMARK                            x       y       z     vdW  Elec       q    Type
REMARK                         _______ _______ _______ _____ _____    ______ ____
ROOT
ATOM      1  C   UNL     1     -57.504 -41.014 -63.006  0.00  0.00    +0.000 A 
ATOM      2  N   UNL     1     -57.078 -39.794 -62.492  0.00  0.00    +0.000 N 
ATOM      3  C   UNL     1     -56.010 -39.081 -63.071  0.00  0.00    +0.000 A 
ATOM      4  C   UNL     1     -55.828 -37.701 -62.858  0.00  0.00    +0.000 A 
ATOM      5 BR   UNL     1     -57.112 -36.683 -61.904  0.00  0.00    +0.000 Br
ATOM      6  C   UNL     1     -54.716 -37.034 -63.381  0.00  0.00    +0.000 A 
ATOM      7  C   UNL     1     -53.774 -37.735 -64.128  0.00  0.00    +0.000 A 
ATOM      8  C   UNL     1     -53.941 -39.112 -64.358  0.00  0.00    +0.000 A 
ATOM      9 CL   UNL     1     -52.746 -39.858 -65.357  0.00  0.00    +0.000 Cl
ATOM     10  C   UNL     1     -55.059 -39.787 -63.825  0.00  0.00    +0.000 A 
ATOM     11  C   UNL     1     -55.309 -41.243 -63.983  0.00  0.00    +0.000 A 
ATOM     12  O   UNL     1     -54.374 -42.007 -64.206  0.00  0.00    +0.000 OA
ATOM     13  C   UNL     1     -56.739 -41.757 -63.841  0.00  0.00    +0.000 A 
ATOM     14  H   UNL     1     -57.834 -39.224 -62.087  0.00  0.00    +0.000 HD
ENDROOT
BRANCH   1  15
ATOM     15  S   UNL     1     -59.258 -41.344 -62.587  0.00  0.00    +0.000 S 
ATOM     16  O   UNL     1     -59.805 -39.987 -62.236  0.00  0.00    +0.000 OA
BRANCH  15  17
ATOM     17  C   UNL     1     -59.144 -42.334 -61.058  0.00  0.00    +0.000 C 
BRANCH  17  21
ATOM     18  C   UNL     1     -61.885 -46.722 -61.243  0.00  0.00    +0.000 C 
ATOM     19  C   UNL     1     -61.262 -45.390 -61.084  0.00  0.00    +0.000 A 
ATOM     20  C   UNL     1     -60.027 -44.852 -61.368  0.00  0.00    +0.000 A 
ATOM     21  C   UNL     1     -60.121 -43.484 -60.980  0.00  0.00    +0.000 A 
ATOM     22  N   UNL     1     -61.342 -43.237 -60.474  0.00  0.00    +0.000 NA
ATOM     23  O   UNL     1     -62.048 -44.423 -60.545  0.00  0.00    +0.000 OA
ENDBRANCH  17  21
ENDBRANCH  15  17
ENDBRANCH   1  15
BRANCH  13  24
ATOM     24  C   UNL     1     -57.109 -42.971 -64.662  0.00  0.00    +0.000 C 
ATOM     25  O   UNL     1     -57.313 -44.052 -64.111  0.00  0.00    +0.000 OA
BRANCH  24  26
ATOM     26  C   UNL     1     -57.168 -42.884 -66.188  0.00  0.00    +0.000 C 
ATOM     27  C   UNL     1     -57.913 -44.070 -66.794  0.00  0.00    +0.000 C 
ATOM     28  C   UNL     1     -57.790 -41.568 -66.662  0.00  0.00    +0.000 C 
ENDBRANCH  24  26
ENDBRANCH  13  24
TORSDOF 5
ENDMDL
MODEL 6
REMARK VINA RESULT:    -6.396     11.654     14.221
REMARK INTER + INTRA:          -9.393
REMARK INTER:                  -8.459
REMARK INTRA:                  -0.934
REMARK UNBOUND:                -1.127
REMARK  Name = 
REMARK  8 active torsions:
REMARK  status: ('A' for Active; 'I' for Inactive)
REMARK    1  A    between atoms: C_1  and  C_2
REMARK    2  A    between atoms: C_4  and  C_5
REMARK    3  A    between atoms: C_5  and  S_6
REMARK    4  A    between atoms: S_6  and  C_8
REMARK    5  A    between atoms: C_20  and  C_21
REMARK    6  A    between atoms: C_21  and  C_23
REMARK    7  A    between atoms: C_23  and  C_24
REMARK    8  A    between atoms: C_23  and  C_25
REMARK                            x       y       z     vdW  Elec       q    Type
REMARK                         _______ _______ _______ _____ _____    ______ ____
ROOT
ATOM      1  C   UNL     1     -54.590 -41.808 -77.072  0.00  0.00    +0.000 A 
ATOM      2  N   UNL     1     -55.875 -42.004 -77.568  0.00  0.00    +0.000 N 
ATOM      3  C   UNL     1     -56.154 -41.925 -78.946  0.00  0.00    +0.000 A 
ATOM      4  C   UNL     1     -57.303 -42.510 -79.513  0.00  0.00    +0.000 A 
ATOM      5 BR   UNL     1     -58.465 -43.586 -78.469  0.00  0.00    +0.000 Br
ATOM      6  C   UNL     1     -57.596 -42.350 -80.870  0.00  0.00    +0.000 A 
ATOM      7  C   UNL     1     -56.744 -41.607 -81.682  0.00  0.00    +0.000 A 
ATOM      8  C   UNL     1     -55.588 -41.020 -81.137  0.00  0.00    +0.000 A 
ATOM      9 CL   UNL     1     -54.572 -40.183 -82.255  0.00  0.00    +0.000 Cl
ATOM     10  C   UNL     1     -55.295 -41.175 -79.766  0.00  0.00    +0.000 A 
ATOM     11  C   UNL     1     -54.119 -40.569 -79.090  0.00  0.00    +0.000 A 
ATOM     12  O   UNL     1     -53.584 -39.572 -79.564  0.00  0.00    +0.000 OA
ATOM     13  C   UNL     1     -53.618 -41.201 -77.794  0.00  0.00    +0.000 A 
ATOM     14  H   UNL     1     -56.429 -42.687 -77.033  0.00  0.00    +0.000 HD
ENDROOT
BRANCH   1  15
ATOM     15  S   UNL     1     -54.355 -42.653 -75.463  0.00  0.00    +0.000 S 
ATOM     16  O   UNL     1     -53.296 -43.684 -75.749  0.00  0.00    +0.000 OA
BRANCH  15  17
ATOM     17  C   UNL     1     -55.944 -43.513 -75.205  0.00  0.00    +0.000 C 
BRANCH  17  21
ATOM     18  C   UNL     1     -59.690 -41.494 -72.257  0.00  0.00    +0.000 C 
ATOM     19  C   UNL     1     -58.490 -42.015 -72.948  0.00  0.00    +0.000 A 
ATOM     20  C   UNL     1     -58.265 -42.747 -74.091  0.00  0.00    +0.000 A 
ATOM     21  C   UNL     1     -56.848 -42.869 -74.180  0.00  0.00    +0.000 A 
ATOM     22  N   UNL     1     -56.271 -42.258 -73.131  0.00  0.00    +0.000 NA
ATOM     23  O   UNL     1     -57.295 -41.726 -72.371  0.00  0.00    +0.000 OA
ENDBRANCH  17  21
ENDBRANCH  15  17
ENDBRANCH   1  15
BRANCH  13  24
ATOM     24  C   UNL     1     -52.134 -41.101 -77.519  0.00  0.00    +0.000 C 
ATOM     25  O   UNL     1     -51.331 -41.703 -78.231  0.00  0.00    +0.000 OA
BRANCH  24  26
ATOM     26  C   UNL     1     -51.623 -40.307 -76.317  0.00  0.00    +0.000 C 
ATOM     27  C   UNL     1     -50.181 -40.669 -75.971  0.00  0.00    +0.000 C 
ATOM     28  C   UNL     1     -51.754 -38.796 -76.532  0.00  0.00    +0.000 C 
ENDBRANCH  24  26
ENDBRANCH  13  24
TORSDOF 5
ENDMDL
MODEL 7
REMARK VINA RESULT:    -6.297     12.305     13.823
REMARK INTER + INTRA:          -9.265
REMARK INTER:                  -8.208
REMARK INTRA:                  -1.057
REMARK UNBOUND:                -1.127
REMARK  Name = 
REMARK  8 active torsions:
REMARK  status: ('A' for Active; 'I' for Inactive)
REMARK    1  A    between atoms: C_1  and  C_2
REMARK    2  A    between atoms: C_4  and  C_5
REMARK    3  A    between atoms: C_5  and  S_6
REMARK    4  A    between atoms: S_6  and  C_8
REMARK    5  A    between atoms: C_20  and  C_21
REMARK    6  A    between atoms: C_21  and  C_23
REMARK    7  A    between atoms: C_23  and  C_24
REMARK    8  A    between atoms: C_23  and  C_25
REMARK                            x       y       z     vdW  Elec       q    Type
REMARK                         _______ _______ _______ _____ _____    ______ ____
ROOT
ATOM      1  C   UNL     1     -55.631 -42.575 -76.626  0.00  0.00    +0.000 A 
ATOM      2  N   UNL     1     -54.315 -42.944 -76.363  0.00  0.00    +0.000 N 
ATOM      3  C   UNL     1     -53.289 -41.986 -76.249  0.00  0.00    +0.000 A 
ATOM      4  C   UNL     1     -52.076 -42.263 -75.590  0.00  0.00    +0.000 A 
ATOM      5 BR   UNL     1     -51.817 -43.901 -74.670  0.00  0.00    +0.000 Br
ATOM      6  C   UNL     1     -51.043 -41.321 -75.560  0.00  0.00    +0.000 A 
ATOM      7  C   UNL     1     -51.209 -40.088 -76.182  0.00  0.00    +0.000 A 
ATOM      8  C   UNL     1     -52.417 -39.788 -76.840  0.00  0.00    +0.000 A 
ATOM      9 CL   UNL     1     -52.532 -38.202 -77.512  0.00  0.00    +0.000 Cl
ATOM     10  C   UNL     1     -53.456 -40.741 -76.877  0.00  0.00    +0.000 A 
ATOM     11  C   UNL     1     -54.753 -40.535 -77.572  0.00  0.00    +0.000 A 
ATOM     12  O   UNL     1     -54.835 -39.728 -78.493  0.00  0.00    +0.000 OA
ATOM     13  C   UNL     1     -55.957 -41.359 -77.127  0.00  0.00    +0.000 A 
ATOM     14  H   UNL     1     -54.227 -43.774 -75.762  0.00  0.00    +0.000 HD
ENDROOT
BRANCH   1  15
ATOM     15  S   UNL     1     -56.816 -43.832 -76.014  0.00  0.00    +0.000 S 
ATOM     16  O   UNL     1     -57.082 -43.412 -74.594  0.00  0.00    +0.000 OA
BRANCH  15  17
ATOM     17  C   UNL     1     -55.826 -45.364 -75.988  0.00  0.00    +0.000 C 
BRANCH  17  21
ATOM     18  C   UNL     1     -55.765 -46.993 -80.902  0.00  0.00    +0.000 C 
ATOM     19  C   UNL     1     -55.688 -46.707 -79.453  0.00  0.00    +0.000 A 
ATOM     20  C   UNL     1     -55.968 -45.618 -78.658  0.00  0.00    +0.000 A 
ATOM     21  C   UNL     1     -55.693 -46.049 -77.328  0.00  0.00    +0.000 A 
ATOM     22  N   UNL     1     -55.254 -47.320 -77.343  0.00  0.00    +0.000 NA
ATOM     23  O   UNL     1     -55.257 -47.725 -78.664  0.00  0.00    +0.000 OA
ENDBRANCH  17  21
ENDBRANCH  15  17
ENDBRANCH   1  15
BRANCH  13  24
ATOM     24  C   UNL     1     -57.315 -40.708 -77.264  0.00  0.00    +0.000 C 
ATOM     25  O   UNL     1     -57.712 -39.918 -76.409  0.00  0.00    +0.000 OA
BRANCH  24  26
ATOM     26  C   UNL     1     -58.233 -41.075 -78.431  0.00  0.00    +0.000 C 
ATOM     27  C   UNL     1     -57.518 -41.941 -79.464  0.00  0.00    +0.000 C 
ATOM     28  C   UNL     1     -59.514 -41.766 -77.955  0.00  0.00    +0.000 C 
ENDBRANCH  24  26
ENDBRANCH  13  24
TORSDOF 5
ENDMDL
MODEL 8
REMARK VINA RESULT:    -6.241     13.373     15.632
REMARK INTER + INTRA:          -9.193
REMARK INTER:                  -8.022
REMARK INTRA:                  -1.171
REMARK UNBOUND:                -1.127
REMARK  Name = 
REMARK  8 active torsions:
REMARK  status: ('A' for Active; 'I' for Inactive)
REMARK    1  A    between atoms: C_1  and  C_2
REMARK    2  A    between atoms: C_4  and  C_5
REMARK    3  A    between atoms: C_5  and  S_6
REMARK    4  A    between atoms: S_6  and  C_8
REMARK    5  A    between atoms: C_20  and  C_21
REMARK    6  A    between atoms: C_21  and  C_23
REMARK    7  A    between atoms: C_23  and  C_24
REMARK    8  A    between atoms: C_23  and  C_25
REMARK                            x       y       z     vdW  Elec       q    Type
REMARK                         _______ _______ _______ _____ _____    ______ ____
ROOT
ATOM      1  C   UNL     1     -55.213 -42.670 -78.867  0.00  0.00    +0.000 A 
ATOM      2  N   UNL     1     -55.293 -44.060 -78.865  0.00  0.00    +0.000 N 
ATOM      3  C   UNL     1     -54.937 -44.819 -77.733  0.00  0.00    +0.000 A 
ATOM      4  C   UNL     1     -55.386 -46.139 -77.545  0.00  0.00    +0.000 A 
ATOM      5 BR   UNL     1     -56.638 -46.923 -78.735  0.00  0.00    +0.000 Br
ATOM      6  C   UNL     1     -54.954 -46.897 -76.452  0.00  0.00    +0.000 A 
ATOM      7  C   UNL     1     -54.072 -46.344 -75.529  0.00  0.00    +0.000 A 
ATOM      8  C   UNL     1     -53.617 -45.023 -75.694  0.00  0.00    +0.000 A 
ATOM      9 CL   UNL     1     -52.583 -44.423 -74.448  0.00  0.00    +0.000 Cl
ATOM     10  C   UNL     1     -54.047 -44.261 -76.801  0.00  0.00    +0.000 A 
ATOM     11  C   UNL     1     -53.600 -42.873 -77.082  0.00  0.00    +0.000 A 
ATOM     12  O   UNL     1     -52.533 -42.467 -76.631  0.00  0.00    +0.000 OA
ATOM     13  C   UNL     1     -54.483 -41.985 -77.955  0.00  0.00    +0.000 A 
ATOM     14  H   UNL     1     -56.063 -44.434 -79.436  0.00  0.00    +0.000 HD
ENDROOT
BRANCH   1  15
ATOM     15  S   UNL     1     -56.365 -41.933 -80.086  0.00  0.00    +0.000 S 
ATOM     16  O   UNL     1     -57.721 -42.393 -79.623  0.00  0.00    +0.000 OA
BRANCH  15  17
ATOM     17  C   UNL     1     -55.954 -42.807 -81.633  0.00  0.00    +0.000 C 
BRANCH  17  21
ATOM     18  C   UNL     1     -51.275 -41.617 -83.502  0.00  0.00    +0.000 C 
ATOM     19  C   UNL     1     -52.521 -42.125 -82.887  0.00  0.00    +0.000 A 
ATOM     20  C   UNL     1     -53.800 -41.640 -82.733  0.00  0.00    +0.000 A 
ATOM     21  C   UNL     1     -54.512 -42.677 -82.065  0.00  0.00    +0.000 A 
ATOM     22  N   UNL     1     -53.688 -43.710 -81.820  0.00  0.00    +0.000 NA
ATOM     23  O   UNL     1     -52.454 -43.364 -82.336  0.00  0.00    +0.000 OA
ENDBRANCH  17  21
ENDBRANCH  15  17
ENDBRANCH   1  15
BRANCH  13  24
ATOM     24  C   UNL     1     -54.454 -40.501 -77.663  0.00  0.00    +0.000 C 
ATOM     25  O   UNL     1     -55.291 -40.002 -76.912  0.00  0.00    +0.000 OA
BRANCH  24  26
ATOM     26  C   UNL     1     -53.428 -39.599 -78.349  0.00  0.00    +0.000 C 
ATOM     27  C   UNL     1     -53.987 -38.973 -79.624  0.00  0.00    +0.000 C 
ATOM     28  C   UNL     1     -52.904 -38.510 -77.409  0.00  0.00    +0.000 C 
ENDBRANCH  24  26
ENDBRANCH  13  24
TORSDOF 5
ENDMDL
MODEL 9
REMARK VINA RESULT:    -6.203      3.399      5.631
REMARK INTER + INTRA:          -9.143
REMARK INTER:                  -7.914
REMARK INTRA:                  -1.229
REMARK UNBOUND:                -1.127
REMARK  Name = 
REMARK  8 active torsions:
REMARK  status: ('A' for Active; 'I' for Inactive)
REMARK    1  A    between atoms: C_1  and  C_2
REMARK    2  A    between atoms: C_4  and  C_5
REMARK    3  A    between atoms: C_5  and  S_6
REMARK    4  A    between atoms: S_6  and  C_8
REMARK    5  A    between atoms: C_20  and  C_21
REMARK    6  A    between atoms: C_21  and  C_23
REMARK    7  A    between atoms: C_23  and  C_24
REMARK    8  A    between atoms: C_23  and  C_25
REMARK                            x       y       z     vdW  Elec       q    Type
REMARK                         _______ _______ _______ _____ _____    ______ ____
ROOT
ATOM      1  C   UNL     1     -57.690 -40.594 -63.303  0.00  0.00    +0.000 A 
ATOM      2  N   UNL     1     -57.166 -39.387 -62.849  0.00  0.00    +0.000 N 
ATOM      3  C   UNL     1     -56.002 -38.829 -63.412  0.00  0.00    +0.000 A 
ATOM      4  C   UNL     1     -55.689 -37.462 -63.283  0.00  0.00    +0.000 A 
ATOM      5 BR   UNL     1     -56.908 -36.254 -62.476  0.00  0.00    +0.000 Br
ATOM      6  C   UNL     1     -54.489 -36.950 -63.783  0.00  0.00    +0.000 A 
ATOM      7  C   UNL     1     -53.587 -37.793 -64.425  0.00  0.00    +0.000 A 
ATOM      8  C   UNL     1     -53.884 -39.161 -64.571  0.00  0.00    +0.000 A 
ATOM      9 CL   UNL     1     -52.723 -40.093 -65.445  0.00  0.00    +0.000 Cl
ATOM     10  C   UNL     1     -55.091 -39.680 -64.059  0.00  0.00    +0.000 A 
ATOM     11  C   UNL     1     -55.482 -41.111 -64.133  0.00  0.00    +0.000 A 
ATOM     12  O   UNL     1     -54.622 -41.978 -64.249  0.00  0.00    +0.000 OA
ATOM     13  C   UNL     1     -56.963 -41.468 -64.040  0.00  0.00    +0.000 A 
ATOM     14  H   UNL     1     -57.879 -38.717 -62.528  0.00  0.00    +0.000 HD
ENDROOT
BRANCH   1  15
ATOM     15  S   UNL     1     -59.487 -40.716 -62.966  0.00  0.00    +0.000 S 
ATOM     16  O   UNL     1     -59.842 -39.360 -62.419  0.00  0.00    +0.000 OA
BRANCH  15  17
ATOM     17  C   UNL     1     -59.577 -41.930 -61.607  0.00  0.00    +0.000 C 
BRANCH  17  21
ATOM     18  C   UNL     1     -55.321 -42.422 -58.701  0.00  0.00    +0.000 C 
ATOM     19  C   UNL     1     -56.583 -42.119 -59.412  0.00  0.00    +0.000 A 
ATOM     20  C   UNL     1     -57.201 -42.595 -60.545  0.00  0.00    +0.000 A 
ATOM     21  C   UNL     1     -58.424 -41.869 -60.633  0.00  0.00    +0.000 A 
ATOM     22  N   UNL     1     -58.509 -40.995 -59.615  0.00  0.00    +0.000 NA
ATOM     23  O   UNL     1     -57.364 -41.157 -58.857  0.00  0.00    +0.000 OA
ENDBRANCH  17  21
ENDBRANCH  15  17
ENDBRANCH   1  15
BRANCH  13  24
ATOM     24  C   UNL     1     -57.415 -42.696 -64.798  0.00  0.00    +0.000 C 
ATOM     25  O   UNL     1     -57.502 -43.781 -64.223  0.00  0.00    +0.000 OA
BRANCH  24  26
ATOM     26  C   UNL     1     -57.703 -42.617 -66.298  0.00  0.00    +0.000 C 
ATOM     27  C   UNL     1     -57.596 -43.984 -66.968  0.00  0.00    +0.000 C 
ATOM     28  C   UNL     1     -59.069 -41.989 -66.586  0.00  0.00    +0.000 C 
ENDBRANCH  24  26
ENDBRANCH  13  24
TORSDOF 5
ENDMDL
MODEL 10
REMARK VINA RESULT:    -5.963     11.864     14.211
REMARK INTER + INTRA:          -8.834
REMARK INTER:                  -8.015
REMARK INTRA:                  -0.819
REMARK UNBOUND:                -1.127
REMARK  Name = 
REMARK  8 active torsions:
REMARK  status: ('A' for Active; 'I' for Inactive)
REMARK    1  A    between atoms: C_1  and  C_2
REMARK    2  A    between atoms: C_4  and  C_5
REMARK    3  A    between atoms: C_5  and  S_6
REMARK    4  A    between atoms: S_6  and  C_8
REMARK    5  A    between atoms: C_20  and  C_21
REMARK    6  A    between atoms: C_21  and  C_23
REMARK    7  A    between atoms: C_23  and  C_24
REMARK    8  A    between atoms: C_23  and  C_25
REMARK                            x       y       z     vdW  Elec       q    Type
REMARK                         _______ _______ _______ _____ _____    ______ ____
ROOT
ATOM      1  C   UNL     1     -54.864 -42.464 -77.528  0.00  0.00    +0.000 A 
ATOM      2  N   UNL     1     -55.447 -43.412 -78.363  0.00  0.00    +0.000 N 
ATOM      3  C   UNL     1     -54.823 -43.830 -79.555  0.00  0.00    +0.000 A 
ATOM      4  C   UNL     1     -55.153 -45.044 -80.187  0.00  0.00    +0.000 A 
ATOM      5 BR   UNL     1     -56.351 -46.272 -79.377  0.00  0.00    +0.000 Br
ATOM      6  C   UNL     1     -54.576 -45.398 -81.410  0.00  0.00    +0.000 A 
ATOM      7  C   UNL     1     -53.656 -44.547 -82.016  0.00  0.00    +0.000 A 
ATOM      8  C   UNL     1     -53.307 -43.333 -81.397  0.00  0.00    +0.000 A 
ATOM      9 CL   UNL     1     -52.104 -42.395 -82.207  0.00  0.00    +0.000 Cl
ATOM     10  C   UNL     1     -53.895 -42.972 -80.167  0.00  0.00    +0.000 A 
ATOM     11  C   UNL     1     -53.618 -41.700 -79.450  0.00  0.00    +0.000 A 
ATOM     12  O   UNL     1     -53.211 -40.722 -80.069  0.00  0.00    +0.000 OA
ATOM     13  C   UNL     1     -53.873 -41.640 -77.947  0.00  0.00    +0.000 A 
ATOM     14  H   UNL     1     -55.994 -44.127 -77.864  0.00  0.00    +0.000 HD
ENDROOT
BRANCH   1  15
ATOM     15  S   UNL     1     -55.448 -42.640 -75.800  0.00  0.00    +0.000 S 
ATOM     16  O   UNL     1     -56.258 -43.908 -75.822  0.00  0.00    +0.000 OA
BRANCH  15  17
ATOM     17  C   UNL     1     -56.589 -41.230 -75.598  0.00  0.00    +0.000 C 
BRANCH  17  21
ATOM     18  C   UNL     1     -60.257 -41.829 -71.994  0.00  0.00    +0.000 C 
ATOM     19  C   UNL     1     -59.089 -41.589 -72.870  0.00  0.00    +0.000 A 
ATOM     20  C   UNL     1     -58.789 -41.850 -74.187  0.00  0.00    +0.000 A 
ATOM     21  C   UNL     1     -57.483 -41.314 -74.384  0.00  0.00    +0.000 A 
ATOM     22  N   UNL     1     -57.031 -40.784 -73.234  0.00  0.00    +0.000 NA
ATOM     23  O   UNL     1     -58.033 -40.954 -72.298  0.00  0.00    +0.000 OA
ENDBRANCH  17  21
ENDBRANCH  15  17
ENDBRANCH   1  15
BRANCH  13  24
ATOM     24  C   UNL     1     -52.980 -40.722 -77.143  0.00  0.00    +0.000 C 
ATOM     25  O   UNL     1     -53.323 -39.560 -76.925  0.00  0.00    +0.000 OA
BRANCH  24  26
ATOM     26  C   UNL     1     -51.616 -41.207 -76.650  0.00  0.00    +0.000 C 
ATOM     27  C   UNL     1     -50.773 -40.060 -76.098  0.00  0.00    +0.000 C 
ATOM     28  C   UNL     1     -51.747 -42.320 -75.607  0.00  0.00    +0.000 C 
ENDBRANCH  24  26
ENDBRANCH  13  24
TORSDOF 5
ENDMDL
MODEL 11
REMARK VINA RESULT:    -5.952     12.521     14.963
REMARK INTER + INTRA:          -8.819
REMARK INTER:                  -7.946
REMARK INTRA:                  -0.874
REMARK UNBOUND:                -1.127
REMARK  Name = 
REMARK  8 active torsions:
REMARK  status: ('A' for Active; 'I' for Inactive)
REMARK    1  A    between atoms: C_1  and  C_2
REMARK    2  A    between atoms: C_4  and  C_5
REMARK    3  A    between atoms: C_5  and  S_6
REMARK    4  A    between atoms: S_6  and  C_8
REMARK    5  A    between atoms: C_20  and  C_21
REMARK    6  A    between atoms: C_21  and  C_23
REMARK    7  A    between atoms: C_23  and  C_24
REMARK    8  A    between atoms: C_23  and  C_25
REMARK                            x       y       z     vdW  Elec       q    Type
REMARK                         _______ _______ _______ _____ _____    ______ ____
ROOT
ATOM      1  C   UNL     1     -55.667 -43.494 -77.579  0.00  0.00    +0.000 A 
ATOM      2  N   UNL     1     -56.111 -43.149 -78.852  0.00  0.00    +0.000 N 
ATOM      3  C   UNL     1     -55.522 -42.097 -79.580  0.00  0.00    +0.000 A 
ATOM      4  C   UNL     1     -55.647 -41.992 -80.978  0.00  0.00    +0.000 A 
ATOM      5 BR   UNL     1     -56.485 -43.361 -81.989  0.00  0.00    +0.000 Br
ATOM      6  C   UNL     1     -55.119 -40.896 -81.667  0.00  0.00    +0.000 A 
ATOM      7  C   UNL     1     -54.454 -39.892 -80.969  0.00  0.00    +0.000 A 
ATOM      8  C   UNL     1     -54.313 -39.981 -79.572  0.00  0.00    +0.000 A 
ATOM      9 CL   UNL     1     -53.408 -38.714 -78.826  0.00  0.00    +0.000 Cl
ATOM     10  C   UNL     1     -54.852 -41.084 -78.877  0.00  0.00    +0.000 A 
ATOM     11  C   UNL     1     -54.784 -41.254 -77.402  0.00  0.00    +0.000 A 
ATOM     12  O   UNL     1     -54.646 -40.275 -76.676  0.00  0.00    +0.000 OA
ATOM     13  C   UNL     1     -54.911 -42.661 -76.825  0.00  0.00    +0.000 A 
ATOM     14  H   UNL     1     -56.450 -43.948 -79.406  0.00  0.00    +0.000 HD
ENDROOT
BRANCH   1  15
ATOM     15  S   UNL     1     -56.047 -45.243 -77.186  0.00  0.00    +0.000 S 
ATOM     16  O   UNL     1     -54.750 -45.960 -77.447  0.00  0.00    +0.000 OA
BRANCH  15  17
ATOM     17  C   UNL     1     -57.239 -45.715 -78.484  0.00  0.00    +0.000 C 
BRANCH  17  21
ATOM     18  C   UNL     1     -60.939 -49.169 -77.398  0.00  0.00    +0.000 C 
ATOM     19  C   UNL     1     -59.748 -48.336 -77.671  0.00  0.00    +0.000 A 
ATOM     20  C   UNL     1     -59.538 -47.063 -78.150  0.00  0.00    +0.000 A 
ATOM     21  C   UNL     1     -58.124 -46.886 -78.129  0.00  0.00    +0.000 A 
ATOM     22  N   UNL     1     -57.533 -48.007 -77.680  0.00  0.00    +0.000 NA
ATOM     23  O   UNL     1     -58.546 -48.902 -77.393  0.00  0.00    +0.000 OA
ENDBRANCH  17  21
ENDBRANCH  15  17
ENDBRANCH   1  15
BRANCH  13  24
ATOM     24  C   UNL     1     -54.162 -42.939 -75.540  0.00  0.00    +0.000 C 
ATOM     25  O   UNL     1     -54.716 -42.777 -74.454  0.00  0.00    +0.000 OA
BRANCH  24  26
ATOM     26  C   UNL     1     -52.692 -43.358 -75.579  0.00  0.00    +0.000 C 
ATOM     27  C   UNL     1     -51.760 -42.149 -75.613  0.00  0.00    +0.000 C 
ATOM     28  C   UNL     1     -52.328 -44.276 -74.409  0.00  0.00    +0.000 C 
ENDBRANCH  24  26
ENDBRANCH  13  24
TORSDOF 5
ENDMDL
MODEL 12
REMARK VINA RESULT:    -5.855      8.956     12.147
REMARK INTER + INTRA:          -8.693
REMARK INTER:                  -7.880
REMARK INTRA:                  -0.813
REMARK UNBOUND:                -1.127
REMARK  Name = 
REMARK  8 active torsions:
REMARK  status: ('A' for Active; 'I' for Inactive)
REMARK    1  A    between atoms: C_1  and  C_2
REMARK    2  A    between atoms: C_4  and  C_5
REMARK    3  A    between atoms: C_5  and  S_6
REMARK    4  A    between atoms: S_6  and  C_8
REMARK    5  A    between atoms: C_20  and  C_21
REMARK    6  A    between atoms: C_21  and  C_23
REMARK    7  A    between atoms: C_23  and  C_24
REMARK    8  A    between atoms: C_23  and  C_25
REMARK                            x       y       z     vdW  Elec       q    Type
REMARK                         _______ _______ _______ _____ _____    ______ ____
ROOT
ATOM      1  C   UNL     1     -57.224 -31.654 -61.032  0.00  0.00    +0.000 A 
ATOM      2  N   UNL     1     -56.086 -32.187 -60.435  0.00  0.00    +0.000 N 
ATOM      3  C   UNL     1     -55.282 -33.138 -61.095  0.00  0.00    +0.000 A 
ATOM      4  C   UNL     1     -53.946 -33.377 -60.723  0.00  0.00    +0.000 A 
ATOM      5 BR   UNL     1     -53.094 -32.310 -59.406  0.00  0.00    +0.000 Br
ATOM      6  C   UNL     1     -53.196 -34.380 -61.343  0.00  0.00    +0.000 A 
ATOM      7  C   UNL     1     -53.768 -35.155 -62.347  0.00  0.00    +0.000 A 
ATOM      8  C   UNL     1     -55.100 -34.927 -62.740  0.00  0.00    +0.000 A 
ATOM      9 CL   UNL     1     -55.676 -35.902 -64.043  0.00  0.00    +0.000 Cl
ATOM     10  C   UNL     1     -55.859 -33.920 -62.109  0.00  0.00    +0.000 A 
ATOM     11  C   UNL     1     -57.279 -33.623 -62.428  0.00  0.00    +0.000 A 
ATOM     12  O   UNL     1     -57.991 -34.487 -62.931  0.00  0.00    +0.000 OA
ATOM     13  C   UNL     1     -57.827 -32.238 -62.095  0.00  0.00    +0.000 A 
ATOM     14  H   UNL     1     -55.591 -31.529 -59.817  0.00  0.00    +0.000 HD
ENDROOT
BRANCH   1  15
ATOM     15  S   UNL     1     -57.634 -30.006 -60.343  0.00  0.00    +0.000 S 
ATOM     16  O   UNL     1     -56.762 -29.062 -61.126  0.00  0.00    +0.000 OA
BRANCH  15  17
ATOM     17  C   UNL     1     -56.999 -30.096 -58.634  0.00  0.00    +0.000 C 
BRANCH  17  21
ATOM     18  C   UNL     1     -57.468 -25.466 -56.367  0.00  0.00    +0.000 C 
ATOM     19  C   UNL     1     -57.450 -26.861 -56.858  0.00  0.00    +0.000 A 
ATOM     20  C   UNL     1     -56.995 -27.487 -57.997  0.00  0.00    +0.000 A 
ATOM     21  C   UNL     1     -57.274 -28.870 -57.796  0.00  0.00    +0.000 A 
ATOM     22  N   UNL     1     -57.881 -29.044 -56.609  0.00  0.00    +0.000 NA
ATOM     23  O   UNL     1     -57.984 -27.794 -56.029  0.00  0.00    +0.000 OA
ENDBRANCH  17  21
ENDBRANCH  15  17
ENDBRANCH   1  15
BRANCH  13  24
ATOM     24  C   UNL     1     -58.914 -31.701 -62.999  0.00  0.00    +0.000 C 
ATOM     25  O   UNL     1     -60.094 -31.971 -62.776  0.00  0.00    +0.000 OA
BRANCH  24  26
ATOM     26  C   UNL     1     -58.553 -30.876 -64.235  0.00  0.00    +0.000 C 
ATOM     27  C   UNL     1     -59.410 -31.257 -65.440  0.00  0.00    +0.000 C 
ATOM     28  C   UNL     1     -58.652 -29.372 -63.967  0.00  0.00    +0.000 C 
ENDBRANCH  24  26
ENDBRANCH  13  24
TORSDOF 5
ENDMDL
MODEL 13
REMARK VINA RESULT:    -5.768     11.282     14.490
REMARK INTER + INTRA:          -8.581
REMARK INTER:                  -7.425
REMARK INTRA:                  -1.156
REMARK UNBOUND:                -1.127
REMARK  Name = 
REMARK  8 active torsions:
REMARK  status: ('A' for Active; 'I' for Inactive)
REMARK    1  A    between atoms: C_1  and  C_2
REMARK    2  A    between atoms: C_4  and  C_5
REMARK    3  A    between atoms: C_5  and  S_6
REMARK    4  A    between atoms: S_6  and  C_8
REMARK    5  A    between atoms: C_20  and  C_21
REMARK    6  A    between atoms: C_21  and  C_23
REMARK    7  A    between atoms: C_23  and  C_24
REMARK    8  A    between atoms: C_23  and  C_25
REMARK                            x       y       z     vdW  Elec       q    Type
REMARK                         _______ _______ _______ _____ _____    ______ ____
ROOT
ATOM      1  C   UNL     1     -57.187 -43.532 -77.932  0.00  0.00    +0.000 A 
ATOM      2  N   UNL     1     -56.260 -43.722 -76.912  0.00  0.00    +0.000 N 
ATOM      3  C   UNL     1     -55.704 -44.989 -76.646  0.00  0.00    +0.000 A 
ATOM      4  C   UNL     1     -54.497 -45.144 -75.937  0.00  0.00    +0.000 A 
ATOM      5 BR   UNL     1     -53.459 -43.637 -75.437  0.00  0.00    +0.000 Br
ATOM      6  C   UNL     1     -54.009 -46.414 -75.619  0.00  0.00    +0.000 A 
ATOM      7  C   UNL     1     -54.715 -47.548 -76.009  0.00  0.00    +0.000 A 
ATOM      8  C   UNL     1     -55.919 -47.415 -76.724  0.00  0.00    +0.000 A 
ATOM      9 CL   UNL     1     -56.668 -48.892 -77.215  0.00  0.00    +0.000 Cl
ATOM     10  C   UNL     1     -56.416 -46.134 -77.039  0.00  0.00    +0.000 A 
ATOM     11  C   UNL     1     -57.691 -45.887 -77.761  0.00  0.00    +0.000 A 
ATOM     12  O   UNL     1     -58.580 -46.733 -77.746  0.00  0.00    +0.000 OA
ATOM     13  C   UNL     1     -57.870 -44.559 -78.491  0.00  0.00    +0.000 A 
ATOM     14  H   UNL     1     -55.640 -42.915 -76.756  0.00  0.00    +0.000 HD
ENDROOT
BRANCH   1  15
ATOM     15  S   UNL     1     -57.182 -41.800 -78.531  0.00  0.00    +0.000 S 
ATOM     16  O   UNL     1     -55.869 -41.254 -78.038  0.00  0.00    +0.000 OA
BRANCH  15  17
ATOM     17  C   UNL     1     -58.527 -41.022 -77.575  0.00  0.00    +0.000 C 
BRANCH  17  21
ATOM     18  C   UNL     1     -57.471 -40.799 -72.511  0.00  0.00    +0.000 C 
ATOM     19  C   UNL     1     -57.904 -41.016 -73.909  0.00  0.00    +0.000 A 
ATOM     20  C   UNL     1     -57.685 -40.375 -75.107  0.00  0.00    +0.000 A 
ATOM     21  C   UNL     1     -58.388 -41.149 -76.076  0.00  0.00    +0.000 A 
ATOM     22  N   UNL     1     -59.005 -42.180 -75.473  0.00  0.00    +0.000 NA
ATOM     23  O   UNL     1     -58.698 -42.095 -74.129  0.00  0.00    +0.000 OA
ENDBRANCH  17  21
ENDBRANCH  15  17
ENDBRANCH   1  15
BRANCH  13  24
ATOM     24  C   UNL     1     -58.733 -44.578 -79.734  0.00  0.00    +0.000 C 
ATOM     25  O   UNL     1     -58.294 -45.044 -80.785  0.00  0.00    +0.000 OA
BRANCH  24  26
ATOM     26  C   UNL     1     -60.131 -43.960 -79.713  0.00  0.00    +0.000 C 
ATOM     27  C   UNL     1     -61.073 -44.658 -80.690  0.00  0.00    +0.000 C 
ATOM     28  C   UNL     1     -60.734 -43.955 -78.306  0.00  0.00    +0.000 C 
ENDBRANCH  24  26
ENDBRANCH  13  24
TORSDOF 5
ENDMDL
MODEL 14
REMARK VINA RESULT:    -5.692     12.885     14.555
REMARK INTER + INTRA:          -8.482
REMARK INTER:                  -7.667
REMARK INTRA:                  -0.816
REMARK UNBOUND:                -1.127
REMARK  Name = 
REMARK  8 active torsions:
REMARK  status: ('A' for Active; 'I' for Inactive)
REMARK    1  A    between atoms: C_1  and  C_2
REMARK    2  A    between atoms: C_4  and  C_5
REMARK    3  A    between atoms: C_5  and  S_6
REMARK    4  A    between atoms: S_6  and  C_8
REMARK    5  A    between atoms: C_20  and  C_21
REMARK    6  A    between atoms: C_21  and  C_23
REMARK    7  A    between atoms: C_23  and  C_24
REMARK    8  A    between atoms: C_23  and  C_25
REMARK                            x       y       z     vdW  Elec       q    Type
REMARK                         _______ _______ _______ _____ _____    ______ ____
ROOT
ATOM      1  C   UNL     1     -56.002 -42.593 -77.882  0.00  0.00    +0.000 A 
ATOM      2  N   UNL     1     -55.271 -41.421 -77.714  0.00  0.00    +0.000 N 
ATOM      3  C   UNL     1     -53.979 -41.431 -77.153  0.00  0.00    +0.000 A 
ATOM      4  C   UNL     1     -53.070 -40.373 -77.347  0.00  0.00    +0.000 A 
ATOM      5 BR   UNL     1     -53.480 -38.938 -78.518  0.00  0.00    +0.000 Br
ATOM      6  C   UNL     1     -51.823 -40.372 -76.716  0.00  0.00    +0.000 A 
ATOM      7  C   UNL     1     -51.464 -41.429 -75.885  0.00  0.00    +0.000 A 
ATOM      8  C   UNL     1     -52.355 -42.500 -75.684  0.00  0.00    +0.000 A 
ATOM      9 CL   UNL     1     -51.770 -43.786 -74.691  0.00  0.00    +0.000 Cl
ATOM     10  C   UNL     1     -53.616 -42.498 -76.315  0.00  0.00    +0.000 A 
ATOM     11  C   UNL     1     -54.637 -43.562 -76.142  0.00  0.00    +0.000 A 
ATOM     12  O   UNL     1     -54.628 -44.265 -75.136  0.00  0.00    +0.000 OA
ATOM     13  C   UNL     1     -55.698 -43.738 -77.225  0.00  0.00    +0.000 A 
ATOM     14  H   UNL     1     -55.442 -40.715 -78.442  0.00  0.00    +0.000 HD
ENDROOT
BRANCH   1  15
ATOM     15  S   UNL     1     -57.236 -42.428 -79.226  0.00  0.00    +0.000 S 
ATOM     16  O   UNL     1     -56.553 -41.546 -80.235  0.00  0.00    +0.000 OA
BRANCH  15  17
ATOM     17  C   UNL     1     -58.583 -41.477 -78.444  0.00  0.00    +0.000 C 
BRANCH  17  21
ATOM     18  C   UNL     1     -62.699 -44.488 -77.552  0.00  0.00    +0.000 C 
ATOM     19  C   UNL     1     -61.644 -43.527 -77.942  0.00  0.00    +0.000 A 
ATOM     20  C   UNL     1     -60.371 -43.246 -77.501  0.00  0.00    +0.000 A 
ATOM     21  C   UNL     1     -59.902 -42.209 -78.359  0.00  0.00    +0.000 A 
ATOM     22  N   UNL     1     -60.859 -41.883 -79.245  0.00  0.00    +0.000 NA
ATOM     23  O   UNL     1     -61.937 -42.708 -78.984  0.00  0.00    +0.000 OA
ENDBRANCH  17  21
ENDBRANCH  15  17
ENDBRANCH   1  15
BRANCH  13  24
ATOM     24  C   UNL     1     -56.223 -45.140 -77.441  0.00  0.00    +0.000 C 
ATOM     25  O   UNL     1     -57.417 -45.385 -77.279  0.00  0.00    +0.000 OA
BRANCH  24  26
ATOM     26  C   UNL     1     -55.265 -46.278 -77.796  0.00  0.00    +0.000 C 
ATOM     27  C   UNL     1     -55.569 -47.544 -76.999  0.00  0.00    +0.000 C 
ATOM     28  C   UNL     1     -55.269 -46.581 -79.297  0.00  0.00    +0.000 C 
ENDBRANCH  24  26
ENDBRANCH  13  24
TORSDOF 5
ENDMDL
MODEL 15
REMARK VINA RESULT:    -5.691     13.231     15.357
REMARK INTER + INTRA:          -8.482
REMARK INTER:                  -7.415
REMARK INTRA:                  -1.067
REMARK UNBOUND:                -1.127
REMARK  Name = 
REMARK  8 active torsions:
REMARK  status: ('A' for Active; 'I' for Inactive)
REMARK    1  A    between atoms: C_1  and  C_2
REMARK    2  A    between atoms: C_4  and  C_5
REMARK    3  A    between atoms: C_5  and  S_6
REMARK    4  A    between atoms: S_6  and  C_8
REMARK    5  A    between atoms: C_20  and  C_21
REMARK    6  A    between atoms: C_21  and  C_23
REMARK    7  A    between atoms: C_23  and  C_24
REMARK    8  A    between atoms: C_23  and  C_25
REMARK                            x       y       z     vdW  Elec       q    Type
REMARK                         _______ _______ _______ _____ _____    ______ ____
ROOT
ATOM      1  C   UNL     1     -56.006 -43.551 -78.117  0.00  0.00    +0.000 A 
ATOM      2  N   UNL     1     -55.382 -44.084 -76.993  0.00  0.00    +0.000 N 
ATOM      3  C   UNL     1     -55.401 -45.466 -76.724  0.00  0.00    +0.000 A 
ATOM      4  C   UNL     1     -54.464 -46.075 -75.867  0.00  0.00    +0.000 A 
ATOM      5 BR   UNL     1     -53.012 -45.088 -75.150  0.00  0.00    +0.000 Br
ATOM      6  C   UNL     1     -54.553 -47.435 -75.555  0.00  0.00    +0.000 A 
ATOM      7  C   UNL     1     -55.576 -48.206 -76.098  0.00  0.00    +0.000 A 
ATOM      8  C   UNL     1     -56.518 -47.619 -76.962  0.00  0.00    +0.000 A 
ATOM      9 CL   UNL     1     -57.697 -48.690 -77.629  0.00  0.00    +0.000 Cl
ATOM     10  C   UNL     1     -56.433 -46.245 -77.271  0.00  0.00    +0.000 A 
ATOM     11  C   UNL     1     -57.395 -45.525 -78.144  0.00  0.00    +0.000 A 
ATOM     12  O   UNL     1     -58.533 -45.961 -78.296  0.00  0.00    +0.000 OA
ATOM     13  C   UNL     1     -56.942 -44.234 -78.819  0.00  0.00    +0.000 A 
ATOM     14  H   UNL     1     -54.530 -43.580 -76.711  0.00  0.00    +0.000 HD
ENDROOT
BRANCH   1  15
ATOM     15  S   UNL     1     -55.248 -41.958 -78.615  0.00  0.00    +0.000 S 
ATOM     16  O   UNL     1     -53.921 -42.359 -79.199  0.00  0.00    +0.000 OA
BRANCH  15  17
ATOM     17  C   UNL     1     -54.949 -41.121 -77.021  0.00  0.00    +0.000 C 
BRANCH  17  21
ATOM     18  C   UNL     1     -49.982 -40.887 -75.580  0.00  0.00    +0.000 C 
ATOM     19  C   UNL     1     -51.368 -40.772 -76.086  0.00  0.00    +0.000 A 
ATOM     20  C   UNL     1     -52.471 -41.595 -76.100  0.00  0.00    +0.000 A 
ATOM     21  C   UNL     1     -53.496 -40.830 -76.728  0.00  0.00    +0.000 A 
ATOM     22  N   UNL     1     -53.013 -39.627 -77.084  0.00  0.00    +0.000 NA
ATOM     23  O   UNL     1     -51.692 -39.595 -76.680  0.00  0.00    +0.000 OA
ENDBRANCH  17  21
ENDBRANCH  15  17
ENDBRANCH   1  15
BRANCH  13  24
ATOM     24  C   UNL     1     -57.554 -43.920 -80.166  0.00  0.00    +0.000 C 
ATOM     25  O   UNL     1     -58.518 -43.159 -80.246  0.00  0.00    +0.000 OA
BRANCH  24  26
ATOM     26  C   UNL     1     -57.025 -44.596 -81.432  0.00  0.00    +0.000 C 
ATOM     27  C   UNL     1     -55.541 -44.936 -81.314  0.00  0.00    +0.000 C 
ATOM     28  C   UNL     1     -57.829 -45.847 -81.792  0.00  0.00    +0.000 C 
ENDBRANCH  24  26
ENDBRANCH  13  24
TORSDOF 5
ENDMDL
MODEL 16
REMARK VINA RESULT:    -5.671     12.684     15.090
REMARK INTER + INTRA:          -8.455
REMARK INTER:                  -7.459
REMARK INTRA:                  -0.997
REMARK UNBOUND:                -1.127
REMARK  Name = 
REMARK  8 active torsions:
REMARK  status: ('A' for Active; 'I' for Inactive)
REMARK    1  A    between atoms: C_1  and  C_2
REMARK    2  A    between atoms: C_4  and  C_5
REMARK    3  A    between atoms: C_5  and  S_6
REMARK    4  A    between atoms: S_6  and  C_8
REMARK    5  A    between atoms: C_20  and  C_21
REMARK    6  A    between atoms: C_21  and  C_23
REMARK    7  A    between atoms: C_23  and  C_24
REMARK    8  A    between atoms: C_23  and  C_25
REMARK                            x       y       z     vdW  Elec       q    Type
REMARK                         _______ _______ _______ _____ _____    ______ ____
ROOT
ATOM      1  C   UNL     1     -55.299 -43.402 -78.401  0.00  0.00    +0.000 A 
ATOM      2  N   UNL     1     -55.322 -44.326 -79.442  0.00  0.00    +0.000 N 
ATOM      3  C   UNL     1     -54.657 -44.083 -80.659  0.00  0.00    +0.000 A 
ATOM      4  C   UNL     1     -54.308 -45.123 -81.542  0.00  0.00    +0.000 A 
ATOM      5 BR   UNL     1     -54.572 -46.939 -81.064  0.00  0.00    +0.000 Br
ATOM      6  C   UNL     1     -53.719 -44.848 -82.780  0.00  0.00    +0.000 A 
ATOM      7  C   UNL     1     -53.465 -43.530 -83.150  0.00  0.00    +0.000 A 
ATOM      8  C   UNL     1     -53.798 -42.477 -82.279  0.00  0.00    +0.000 A 
ATOM      9 CL   UNL     1     -53.370 -40.893 -82.817  0.00  0.00    +0.000 Cl
ATOM     10  C   UNL     1     -54.399 -42.754 -81.034  0.00  0.00    +0.000 A 
ATOM     11  C   UNL     1     -54.818 -41.714 -80.059  0.00  0.00    +0.000 A 
ATOM     12  O   UNL     1     -55.061 -40.574 -80.443  0.00  0.00    +0.000 OA
ATOM     13  C   UNL     1     -54.958 -42.105 -78.591  0.00  0.00    +0.000 A 
ATOM     14  H   UNL     1     -55.348 -45.306 -79.129  0.00  0.00    +0.000 HD
ENDROOT
BRANCH   1  15
ATOM     15  S   UNL     1     -55.568 -44.210 -76.779  0.00  0.00    +0.000 S 
ATOM     16  O   UNL     1     -55.490 -45.680 -77.092  0.00  0.00    +0.000 OA
BRANCH  15  17
ATOM     17  C   UNL     1     -57.300 -43.794 -76.384  0.00  0.00    +0.000 C 
BRANCH  17  21
ATOM     18  C   UNL     1     -57.140 -40.482 -72.408  0.00  0.00    +0.000 C 
ATOM     19  C   UNL     1     -57.356 -41.326 -73.605  0.00  0.00    +0.000 A 
ATOM     20  C   UNL     1     -56.649 -42.328 -74.230  0.00  0.00    +0.000 A 
ATOM     21  C   UNL     1     -57.465 -42.726 -75.328  0.00  0.00    +0.000 A 
ATOM     22  N   UNL     1     -58.583 -41.981 -75.359  0.00  0.00    +0.000 NA
ATOM     23  O   UNL     1     -58.512 -41.116 -74.284  0.00  0.00    +0.000 OA
ENDBRANCH  17  21
ENDBRANCH  15  17
ENDBRANCH   1  15
BRANCH  13  24
ATOM     24  C   UNL     1     -54.663 -41.028 -77.570  0.00  0.00    +0.000 C 
ATOM     25  O   UNL     1     -55.581 -40.366 -77.087  0.00  0.00    +0.000 OA
BRANCH  24  26
ATOM     26  C   UNL     1     -53.220 -40.708 -77.179  0.00  0.00    +0.000 C 
ATOM     27  C   UNL     1     -52.221 -41.570 -77.947  0.00  0.00    +0.000 C 
ATOM     28  C   UNL     1     -52.893 -39.223 -77.365  0.00  0.00    +0.000 C 
ENDBRANCH  24  26
ENDBRANCH  13  24
TORSDOF 5
ENDMDL
MODEL 17
REMARK VINA RESULT:    -5.597      8.248     10.551
REMARK INTER + INTRA:          -8.361
REMARK INTER:                  -7.261
REMARK INTRA:                  -1.100
REMARK UNBOUND:                -1.127
REMARK  Name = 
REMARK  8 active torsions:
REMARK  status: ('A' for Active; 'I' for Inactive)
REMARK    1  A    between atoms: C_1  and  C_2
REMARK    2  A    between atoms: C_4  and  C_5
REMARK    3  A    between atoms: C_5  and  S_6
REMARK    4  A    between atoms: S_6  and  C_8
REMARK    5  A    between atoms: C_20  and  C_21
REMARK    6  A    between atoms: C_21  and  C_23
REMARK    7  A    between atoms: C_23  and  C_24
REMARK    8  A    between atoms: C_23  and  C_25
REMARK                            x       y       z     vdW  Elec       q    Type
REMARK                         _______ _______ _______ _____ _____    ______ ____
ROOT
ATOM      1  C   UNL     1     -57.117 -31.667 -61.152  0.00  0.00    +0.000 A 
ATOM      2  N   UNL     1     -55.979 -32.202 -60.557  0.00  0.00    +0.000 N 
ATOM      3  C   UNL     1     -55.207 -33.193 -61.195  0.00  0.00    +0.000 A 
ATOM      4  C   UNL     1     -53.870 -33.447 -60.837  0.00  0.00    +0.000 A 
ATOM      5 BR   UNL     1     -52.972 -32.352 -59.575  0.00  0.00    +0.000 Br
ATOM      6  C   UNL     1     -53.152 -34.488 -61.433  0.00  0.00    +0.000 A 
ATOM      7  C   UNL     1     -53.758 -35.287 -62.398  0.00  0.00    +0.000 A 
ATOM      8  C   UNL     1     -55.092 -35.045 -62.775  0.00  0.00    +0.000 A 
ATOM      9 CL   UNL     1     -55.712 -36.054 -64.032  0.00  0.00    +0.000 Cl
ATOM     10  C   UNL     1     -55.818 -33.999 -62.169  0.00  0.00    +0.000 A 
ATOM     11  C   UNL     1     -57.238 -33.684 -62.474  0.00  0.00    +0.000 A 
ATOM     12  O   UNL     1     -57.976 -34.551 -62.932  0.00  0.00    +0.000 OA
ATOM     13  C   UNL     1     -57.751 -32.276 -62.183  0.00  0.00    +0.000 A 
ATOM     14  H   UNL     1     -55.460 -31.533 -59.971  0.00  0.00    +0.000 HD
ENDROOT
BRANCH   1  15
ATOM     15  S   UNL     1     -57.480 -29.987 -60.517  0.00  0.00    +0.000 S 
ATOM     16  O   UNL     1     -56.119 -29.388 -60.285  0.00  0.00    +0.000 OA
BRANCH  15  17
ATOM     17  C   UNL     1     -58.254 -30.309 -58.897  0.00  0.00    +0.000 C 
BRANCH  17  21
ATOM     18  C   UNL     1     -61.838 -34.037 -59.152  0.00  0.00    +0.000 C 
ATOM     19  C   UNL     1     -60.695 -33.112 -58.984  0.00  0.00    +0.000 A 
ATOM     20  C   UNL     1     -60.402 -31.838 -59.412  0.00  0.00    +0.000 A 
ATOM     21  C   UNL     1     -59.126 -31.542 -58.851  0.00  0.00    +0.000 A 
ATOM     22  N   UNL     1     -58.683 -32.598 -58.147  0.00  0.00    +0.000 NA
ATOM     23  O   UNL     1     -59.663 -33.569 -58.229  0.00  0.00    +0.000 OA
ENDBRANCH  17  21
ENDBRANCH  15  17
ENDBRANCH   1  15
BRANCH  13  24
ATOM     24  C   UNL     1     -58.843 -31.750 -63.087  0.00  0.00    +0.000 C 
ATOM     25  O   UNL     1     -60.015 -32.071 -62.894  0.00  0.00    +0.000 OA
BRANCH  24  26
ATOM     26  C   UNL     1     -58.494 -30.871 -64.288  0.00  0.00    +0.000 C 
ATOM     27  C   UNL     1     -59.397 -31.162 -65.484  0.00  0.00    +0.000 C 
ATOM     28  C   UNL     1     -58.539 -29.381 -63.939  0.00  0.00    +0.000 C 
ENDBRANCH  24  26
ENDBRANCH  13  24
TORSDOF 5
ENDMDL
MODEL 18
REMARK VINA RESULT:    -5.580      8.339     11.409
REMARK INTER + INTRA:          -8.338
REMARK INTER:                  -7.263
REMARK INTRA:                  -1.075
REMARK UNBOUND:                -1.127
REMARK  Name = 
REMARK  8 active torsions:
REMARK  status: ('A' for Active; 'I' for Inactive)
REMARK    1  A    between atoms: C_1  and  C_2
REMARK    2  A    between atoms: C_4  and  C_5
REMARK    3  A    between atoms: C_5  and  S_6
REMARK    4  A    between atoms: S_6  and  C_8
REMARK    5  A    between atoms: C_20  and  C_21
REMARK    6  A    between atoms: C_21  and  C_23
REMARK    7  A    between atoms: C_23  and  C_24
REMARK    8  A    between atoms: C_23  and  C_25
REMARK                            x       y       z     vdW  Elec       q    Type
REMARK                         _______ _______ _______ _____ _____    ______ ____
ROOT
ATOM      1  C   UNL     1     -57.121 -31.546 -61.099  0.00  0.00    +0.000 A 
ATOM      2  N   UNL     1     -55.989 -32.091 -60.501  0.00  0.00    +0.000 N 
ATOM      3  C   UNL     1     -55.231 -33.096 -61.133  0.00  0.00    +0.000 A 
ATOM      4  C   UNL     1     -53.897 -33.364 -60.776  0.00  0.00    +0.000 A 
ATOM      5 BR   UNL     1     -52.983 -32.270 -59.525  0.00  0.00    +0.000 Br
ATOM      6  C   UNL     1     -53.193 -34.419 -61.364  0.00  0.00    +0.000 A 
ATOM      7  C   UNL     1     -53.811 -35.218 -62.321  0.00  0.00    +0.000 A 
ATOM      8  C   UNL     1     -55.142 -34.962 -62.698  0.00  0.00    +0.000 A 
ATOM      9 CL   UNL     1     -55.777 -35.973 -63.945  0.00  0.00    +0.000 Cl
ATOM     10  C   UNL     1     -55.854 -33.903 -62.099  0.00  0.00    +0.000 A 
ATOM     11  C   UNL     1     -57.271 -33.572 -62.404  0.00  0.00    +0.000 A 
ATOM     12  O   UNL     1     -58.020 -34.433 -62.854  0.00  0.00    +0.000 OA
ATOM     13  C   UNL     1     -57.765 -32.156 -62.123  0.00  0.00    +0.000 A 
ATOM     14  H   UNL     1     -55.461 -31.423 -59.923  0.00  0.00    +0.000 HD
ENDROOT
BRANCH   1  15
ATOM     15  S   UNL     1     -57.462 -29.856 -60.477  0.00  0.00    +0.000 S 
ATOM     16  O   UNL     1     -56.120 -29.179 -60.524  0.00  0.00    +0.000 OA
BRANCH  15  17
ATOM     17  C   UNL     1     -57.909 -30.135 -58.730  0.00  0.00    +0.000 C 
BRANCH  17  21
ATOM     18  C   UNL     1     -53.697 -30.640 -55.763  0.00  0.00    +0.000 C 
ATOM     19  C   UNL     1     -54.934 -30.696 -56.573  0.00  0.00    +0.000 A 
ATOM     20  C   UNL     1     -55.714 -29.770 -57.226  0.00  0.00    +0.000 A 
ATOM     21  C   UNL     1     -56.753 -30.527 -57.841  0.00  0.00    +0.000 A 
ATOM     22  N   UNL     1     -56.602 -31.830 -57.545  0.00  0.00    +0.000 NA
ATOM     23  O   UNL     1     -55.469 -31.930 -56.761  0.00  0.00    +0.000 OA
ENDBRANCH  17  21
ENDBRANCH  15  17
ENDBRANCH   1  15
BRANCH  13  24
ATOM     24  C   UNL     1     -58.852 -31.624 -63.030  0.00  0.00    +0.000 C 
ATOM     25  O   UNL     1     -60.029 -31.918 -62.824  0.00  0.00    +0.000 OA
BRANCH  24  26
ATOM     26  C   UNL     1     -58.494 -30.771 -64.248  0.00  0.00    +0.000 C 
ATOM     27  C   UNL     1     -59.392 -31.083 -65.442  0.00  0.00    +0.000 C 
ATOM     28  C   UNL     1     -58.534 -29.274 -63.930  0.00  0.00    +0.000 C 
ENDBRANCH  24  26
ENDBRANCH  13  24
TORSDOF 5
ENDMDL
MODEL 19
REMARK VINA RESULT:    -5.255     10.656     13.640
REMARK INTER + INTRA:          -7.919
REMARK INTER:                  -6.960
REMARK INTRA:                  -0.958
REMARK UNBOUND:                -1.127
REMARK  Name = 
REMARK  8 active torsions:
REMARK  status: ('A' for Active; 'I' for Inactive)
REMARK    1  A    between atoms: C_1  and  C_2
REMARK    2  A    between atoms: C_4  and  C_5
REMARK    3  A    between atoms: C_5  and  S_6
REMARK    4  A    between atoms: S_6  and  C_8
REMARK    5  A    between atoms: C_20  and  C_21
REMARK    6  A    between atoms: C_21  and  C_23
REMARK    7  A    between atoms: C_23  and  C_24
REMARK    8  A    between atoms: C_23  and  C_25
REMARK                            x       y       z     vdW  Elec       q    Type
REMARK                         _______ _______ _______ _____ _____    ______ ____
ROOT
ATOM      1  C   UNL     1     -67.347 -40.347 -68.429  0.00  0.00    +0.000 A 
ATOM      2  N   UNL     1     -66.284 -40.156 -69.306  0.00  0.00    +0.000 N 
ATOM      3  C   UNL     1     -64.952 -40.401 -68.917  0.00  0.00    +0.000 A 
ATOM      4  C   UNL     1     -63.927 -40.623 -69.856  0.00  0.00    +0.000 A 
ATOM      5 BR   UNL     1     -64.313 -40.769 -71.707  0.00  0.00    +0.000 Br
ATOM      6  C   UNL     1     -62.600 -40.785 -69.446  0.00  0.00    +0.000 A 
ATOM      7  C   UNL     1     -62.280 -40.733 -68.092  0.00  0.00    +0.000 A 
ATOM      8  C   UNL     1     -63.291 -40.519 -67.138  0.00  0.00    +0.000 A 
ATOM      9 CL   UNL     1     -62.784 -40.545 -65.488  0.00  0.00    +0.000 Cl
ATOM     10  C   UNL     1     -64.628 -40.348 -67.552  0.00  0.00    +0.000 A 
ATOM     11  C   UNL     1     -65.761 -40.085 -66.627  0.00  0.00    +0.000 A 
ATOM     12  O   UNL     1     -65.553 -39.583 -65.527  0.00  0.00    +0.000 OA
ATOM     13  C   UNL     1     -67.174 -40.432 -67.088  0.00  0.00    +0.000 A 
ATOM     14  H   UNL     1     -66.512 -40.360 -70.289  0.00  0.00    +0.000 HD
ENDROOT
BRANCH   1  15
ATOM     15  S   UNL     1     -68.910 -40.675 -69.328  0.00  0.00    +0.000 S 
ATOM     16  O   UNL     1     -68.592 -41.880 -70.172  0.00  0.00    +0.000 OA
BRANCH  15  17
ATOM     17  C   UNL     1     -69.074 -39.227 -70.426  0.00  0.00    +0.000 C 
BRANCH  17  21
ATOM     18  C   UNL     1     -71.441 -34.816 -69.107  0.00  0.00    +0.000 C 
ATOM     19  C   UNL     1     -70.814 -36.143 -69.294  0.00  0.00    +0.000 A 
ATOM     20  C   UNL     1     -70.240 -36.809 -70.353  0.00  0.00    +0.000 A 
ATOM     21  C   UNL     1     -69.807 -38.056 -69.816  0.00  0.00    +0.000 A 
ATOM     22  N   UNL     1     -70.131 -38.128 -68.514  0.00  0.00    +0.000 NA
ATOM     23  O   UNL     1     -70.753 -36.936 -68.194  0.00  0.00    +0.000 OA
ENDBRANCH  17  21
ENDBRANCH  15  17
ENDBRANCH   1  15
BRANCH  13  24
ATOM     24  C   UNL     1     -68.154 -40.852 -66.016  0.00  0.00    +0.000 C 
ATOM     25  O   UNL     1     -68.949 -40.037 -65.550  0.00  0.00    +0.000 OA
BRANCH  24  26
ATOM     26  C   UNL     1     -68.122 -42.274 -65.454  0.00  0.00    +0.000 C 
ATOM     27  C   UNL     1     -68.578 -42.318 -63.998  0.00  0.00    +0.000 C 
ATOM     28  C   UNL     1     -68.954 -43.242 -66.300  0.00  0.00    +0.000 C 
ENDBRANCH  24  26
ENDBRANCH  13  24
TORSDOF 5
ENDMDL
MODEL 20
REMARK VINA RESULT:    -5.075     13.402     16.343
REMARK INTER + INTRA:          -7.686
REMARK INTER:                  -6.457
REMARK INTRA:                  -1.229
REMARK UNBOUND:                -1.127
REMARK  Name = 
REMARK  8 active torsions:
REMARK  status: ('A' for Active; 'I' for Inactive)
REMARK    1  A    between atoms: C_1  and  C_2
REMARK    2  A    between atoms: C_4  and  C_5
REMARK    3  A    between atoms: C_5  and  S_6
REMARK    4  A    between atoms: S_6  and  C_8
REMARK    5  A    between atoms: C_20  and  C_21
REMARK    6  A    between atoms: C_21  and  C_23
REMARK    7  A    between atoms: C_23  and  C_24
REMARK    8  A    between atoms: C_23  and  C_25
REMARK                            x       y       z     vdW  Elec       q    Type
REMARK                         _______ _______ _______ _____ _____    ______ ____
ROOT
ATOM      1  C   UNL     1     -56.629 -44.031 -78.917  0.00  0.00    +0.000 A 
ATOM      2  N   UNL     1     -55.887 -43.422 -77.911  0.00  0.00    +0.000 N 
ATOM      3  C   UNL     1     -55.076 -44.170 -77.035  0.00  0.00    +0.000 A 
ATOM      4  C   UNL     1     -54.022 -43.586 -76.307  0.00  0.00    +0.000 A 
ATOM      5 BR   UNL     1     -53.526 -41.777 -76.590  0.00  0.00    +0.000 Br
ATOM      6  C   UNL     1     -53.283 -44.334 -75.386  0.00  0.00    +0.000 A 
ATOM      7  C   UNL     1     -53.583 -45.678 -75.183  0.00  0.00    +0.000 A 
ATOM      8  C   UNL     1     -54.628 -46.282 -75.906  0.00  0.00    +0.000 A 
ATOM      9 CL   UNL     1     -54.860 -47.970 -75.621  0.00  0.00    +0.000 Cl
ATOM     10  C   UNL     1     -55.378 -45.526 -76.829  0.00  0.00    +0.000 A 
ATOM     11  C   UNL     1     -56.519 -46.061 -77.616  0.00  0.00    +0.000 A 
ATOM     12  O   UNL     1     -57.141 -47.038 -77.210  0.00  0.00    +0.000 OA
ATOM     13  C   UNL     1     -56.904 -45.357 -78.914  0.00  0.00    +0.000 A 
ATOM     14  H   UNL     1     -55.540 -42.484 -78.157  0.00  0.00    +0.000 HD
ENDROOT
BRANCH   1  15
ATOM     15  S   UNL     1     -56.970 -42.873 -80.296  0.00  0.00    +0.000 S 
ATOM     16  O   UNL     1     -56.562 -43.643 -81.522  0.00  0.00    +0.000 OA
BRANCH  15  17
ATOM     17  C   UNL     1     -55.760 -41.533 -80.026  0.00  0.00    +0.000 C 
BRANCH  17  21
ATOM     18  C   UNL     1     -51.000 -42.762 -81.649  0.00  0.00    +0.000 C 
ATOM     19  C   UNL     1     -52.376 -42.301 -81.360  0.00  0.00    +0.000 A 
ATOM     20  C   UNL     1     -53.316 -42.584 -80.396  0.00  0.00    +0.000 A 
ATOM     21  C   UNL     1     -54.427 -41.745 -80.703  0.00  0.00    +0.000 A 
ATOM     22  N   UNL     1     -54.160 -41.023 -81.805  0.00  0.00    +0.000 NA
ATOM     23  O   UNL     1     -52.884 -41.369 -82.207  0.00  0.00    +0.000 OA
ENDBRANCH  17  21
ENDBRANCH  15  17
ENDBRANCH   1  15
BRANCH  13  24
ATOM     24  C   UNL     1     -57.489 -46.222 -80.008  0.00  0.00    +0.000 C 
ATOM     25  O   UNL     1     -58.697 -46.194 -80.240  0.00  0.00    +0.000 OA
BRANCH  24  26
ATOM     26  C   UNL     1     -56.597 -47.186 -80.791  0.00  0.00    +0.000 C 
ATOM     27  C   UNL     1     -55.125 -46.793 -80.704  0.00  0.00    +0.000 C 
ATOM     28  C   UNL     1     -56.787 -48.637 -80.337  0.00  0.00    +0.000 C 
ENDBRANCH  24  26
ENDBRANCH  13  24
TORSDOF 5
ENDMDL
