REMARK VINA RESULT:    -5.508      4.395      5.116
REMARK INTER + INTRA:          -7.516
REMARK INTER:                  -6.525
REMARK INTRA:                  -0.991
REMARK UNBOUND:                -0.720
REMARK  Name = 
REMARK  6 active torsions:
REMARK  status: ('A' for Active; 'I' for Inactive)
REMARK    1  A    between atoms: C_1  and  C_2
REMARK    2  A    between atoms: C_2  and  C_4
REMARK    3  A    between atoms: C_5  and  S_6
REMARK    4  A    between atoms: S_6  and  C_8
REMARK    5  A    between atoms: C_8  and  C_9
REMARK    6  A    between atoms: C_11  and  C_12
REMARK                            x       y       z     vdW  Elec       q    Type
REMARK                         _______ _______ _______ _____ _____    ______ ____
ROOT
ATOM      1  C   UNL     1     -54.262 -43.368 -77.275  0.00  0.00    +0.000 A 
ATOM      2  C   UNL     1     -54.397 -43.254 -78.620  0.00  0.00    +0.000 A 
ATOM      3  N   UNL     1     -54.835 -44.289 -79.426  0.00  0.00    +0.000 N 
ATOM      4  C   UNL     1     -55.032 -45.598 -78.948  0.00  0.00    +0.000 A 
ATOM      5  C   UNL     1     -55.412 -46.637 -79.813  0.00  0.00    +0.000 A 
ATOM      6 BR   UNL     1     -55.572 -46.341 -81.684  0.00  0.00    +0.000 Br
ATOM      7  C   UNL     1     -55.673 -47.921 -79.331  0.00  0.00    +0.000 A 
ATOM      8  C   UNL     1     -55.563 -48.177 -77.967  0.00  0.00    +0.000 A 
ATOM      9  C   UNL     1     -55.195 -47.161 -77.084  0.00  0.00    +0.000 A 
ATOM     10 CL   UNL     1     -55.086 -47.641 -75.425  0.00  0.00    +0.000 Cl
ATOM     11  C   UNL     1     -54.941 -45.862 -77.573  0.00  0.00    +0.000 A 
ATOM     12  C   UNL     1     -54.547 -44.731 -76.695  0.00  0.00    +0.000 A 
ATOM     13  O   UNL     1     -54.412 -44.919 -75.489  0.00  0.00    +0.000 OA
ATOM     14  H   UNL     1     -54.632 -44.203 -80.421  0.00  0.00    +0.000 HD
ENDROOT
BRANCH   1  16
ATOM     15  C   UNL     1     -52.388 -42.197 -75.899  0.00  0.00    +0.000 C 
ATOM     16  C   UNL     1     -53.831 -42.264 -76.348  0.00  0.00    +0.000 C 
ATOM     17  O   UNL     1     -54.628 -41.416 -75.932  0.00  0.00    +0.000 OA
ENDBRANCH   1  16
BRANCH   2  18
ATOM     18  S   UNL     1     -53.851 -41.746 -79.496  0.00  0.00    +0.000 S 
ATOM     19  O   UNL     1     -52.349 -41.812 -79.424  0.00  0.00    +0.000 OA
BRANCH  18  20
ATOM     20  C   UNL     1     -54.292 -42.196 -81.212  0.00  0.00    +0.000 C 
BRANCH  20  21
ATOM     21  C   UNL     1     -53.110 -42.628 -82.023  0.00  0.00    +0.000 A 
ATOM     22  C   UNL     1     -52.223 -41.869 -82.833  0.00  0.00    +0.000 A 
ATOM     23  C   UNL     1     -51.322 -42.783 -83.318  0.00  0.00    +0.000 A 
ATOM     24  C   UNL     1     -50.172 -42.718 -84.242  0.00  0.00    +0.000 C 
ATOM     25  O   UNL     1     -51.613 -44.007 -82.803  0.00  0.00    +0.000 OA
ATOM     26  N   UNL     1     -52.725 -43.913 -81.986  0.00  0.00    +0.000 NA
ENDBRANCH  20  21
ENDBRANCH  18  20
ENDBRANCH   2  18
TORSDOF 4
