REMARK VINA RESULT:    -6.721      3.318      5.680
REMARK INTER + INTRA:          -9.596
REMARK INTER:                  -8.711
REMARK INTRA:                  -0.885
REMARK UNBOUND:                -0.910
REMARK  Name = 
REMARK  6 active torsions:
REMARK  status: ('A' for Active; 'I' for Inactive)
REMARK    1  A    between atoms: C_1  and  C_2
REMARK    2  A    between atoms: C_4  and  C_5
REMARK    3  A    between atoms: C_5  and  S_6
REMARK    4  A    between atoms: S_6  and  C_8
REMARK    5  A    between atoms: C_20  and  C_21
REMARK    6  A    between atoms: C_21  and  C_23
REMARK                            x       y       z     vdW  Elec       q    Type
REMARK                         _______ _______ _______ _____ _____    ______ ____
ROOT
ATOM      1  C   UNL     1     -57.825 -41.047 -62.751  0.00  0.00    +0.000 A 
ATOM      2  N   UNL     1     -57.361 -39.770 -62.380  0.00  0.00    +0.000 N 
ATOM      3  C   UNL     1     -56.262 -39.175 -63.059  0.00  0.00    +0.000 A 
ATOM      4  C   UNL     1     -55.995 -37.793 -63.023  0.00  0.00    +0.000 A 
ATOM      5 BR   UNL     1     -57.202 -36.583 -62.200  0.00  0.00    +0.000 Br
ATOM      6  C   UNL     1     -54.840 -37.263 -63.614  0.00  0.00    +0.000 A 
ATOM      7  C   UNL     1     -53.948 -38.114 -64.277  0.00  0.00    +0.000 A 
ATOM      8  C   UNL     1     -54.193 -39.486 -64.327  0.00  0.00    +0.000 A 
ATOM      9 CL   UNL     1     -53.071 -40.439 -65.230  0.00  0.00    +0.000 Cl
ATOM     10  C   UNL     1     -55.334 -40.009 -63.701  0.00  0.00    +0.000 A 
ATOM     11  C   UNL     1     -55.631 -41.453 -63.628  0.00  0.00    +0.000 A 
ATOM     12  O   UNL     1     -54.741 -42.294 -63.599  0.00  0.00    +0.000 OA
ATOM     13  C   UNL     1     -57.067 -41.870 -63.508  0.00  0.00    +0.000 A 
ATOM     14  H   UNL     1     -58.132 -39.116 -62.187  0.00  0.00    +0.000 HD
ENDROOT
BRANCH   1  15
ATOM     15  S   UNL     1     -59.610 -41.237 -62.503  0.00  0.00    +0.000 S 
ATOM     16  O   UNL     1     -60.125 -39.826 -62.428  0.00  0.00    +0.000 OA
BRANCH  15  17
ATOM     17  C   UNL     1     -59.920 -42.016 -60.891  0.00  0.00    +0.000 C 
BRANCH  17  21
ATOM     18  C   UNL     1     -61.705 -46.695 -59.824  0.00  0.00    +0.000 C 
ATOM     19  C   UNL     1     -61.115 -45.434 -60.310  0.00  0.00    +0.000 A 
ATOM     20  C   UNL     1     -61.125 -44.130 -59.875  0.00  0.00    +0.000 A 
ATOM     21  C   UNL     1     -60.269 -43.451 -60.769  0.00  0.00    +0.000 A 
ATOM     22  N   UNL     1     -59.828 -44.285 -61.726  0.00  0.00    +0.000 NA
ATOM     23  O   UNL     1     -60.358 -45.524 -61.434  0.00  0.00    +0.000 OA
ENDBRANCH  17  21
ENDBRANCH  15  17
ENDBRANCH   1  15
BRANCH  13  24
ATOM     24  C   UNL     1     -57.432 -43.019 -64.384  0.00  0.00    +0.000 C 
ATOM     25  O   UNL     1     -57.396 -44.160 -63.958  0.00  0.00    +0.000 OA
BRANCH  24  26
ATOM     26  C   UNL     1     -57.885 -42.747 -65.762  0.00  0.00    +0.000 C 
ATOM     27  C   UNL     1     -57.851 -43.853 -66.785  0.00  0.00    +0.000 C 
ATOM     28  C   UNL     1     -56.907 -42.697 -66.911  0.00  0.00    +0.000 C 
ENDBRANCH  24  26
ENDBRANCH  13  24
TORSDOF 5
