REMARK VINA RESULT:    -6.605      4.007      7.539
REMARK INTER + INTRA:          -9.443
REMARK INTER:                  -9.034
REMARK INTRA:                  -0.409
REMARK UNBOUND:                -0.908
REMARK  Name = 
REMARK  6 active torsions:
REMARK  status: ('A' for Active; 'I' for Inactive)
REMARK    1  A    between atoms: C_1  and  C_2
REMARK    2  A    between atoms: C_4  and  C_5
REMARK    3  A    between atoms: C_5  and  S_6
REMARK    4  A    between atoms: S_6  and  C_8
REMARK    5  A    between atoms: C_20  and  C_21
REMARK    6  A    between atoms: C_21  and  C_23
REMARK                            x       y       z     vdW  Elec       q    Type
REMARK                         _______ _______ _______ _____ _____    ______ ____
ROOT
ATOM      1  C   UNL     1     -55.124 -42.384 -77.721  0.00  0.00    +0.000 A 
ATOM      2  N   UNL     1     -56.457 -42.792 -77.520  0.00  0.00    +0.000 N 
ATOM      3  C   UNL     1     -57.111 -42.542 -76.282  0.00  0.00    +0.000 A 
ATOM      4  C   UNL     1     -58.511 -42.558 -76.136  0.00  0.00    +0.000 A 
ATOM      5 BR   UNL     1     -59.650 -42.740 -77.641  0.00  0.00    +0.000 Br
ATOM      6  C   UNL     1     -59.110 -42.416 -74.876  0.00  0.00    +0.000 A 
ATOM      7  C   UNL     1     -58.308 -42.227 -73.745  0.00  0.00    +0.000 A 
ATOM      8  C   UNL     1     -56.918 -42.206 -73.865  0.00  0.00    +0.000 A 
ATOM      9 CL   UNL     1     -56.022 -41.896 -72.422  0.00  0.00    +0.000 Cl
ATOM     10  C   UNL     1     -56.329 -42.386 -75.126  0.00  0.00    +0.000 A 
ATOM     11  C   UNL     1     -54.871 -42.464 -75.338  0.00  0.00    +0.000 A 
ATOM     12  O   UNL     1     -54.118 -42.908 -74.481  0.00  0.00    +0.000 OA
ATOM     13  C   UNL     1     -54.332 -42.055 -76.677  0.00  0.00    +0.000 A 
ATOM     14  H   UNL     1     -57.048 -42.614 -78.343  0.00  0.00    +0.000 HD
ENDROOT
BRANCH   1  15
ATOM     15  S   UNL     1     -54.786 -41.937 -79.445  0.00  0.00    +0.000 S 
ATOM     16  O   UNL     1     -55.848 -42.659 -80.229  0.00  0.00    +0.000 OA
BRANCH  15  17
ATOM     17  C   UNL     1     -53.180 -42.623 -79.945  0.00  0.00    +0.000 C 
BRANCH  17  21
ATOM     18  C   UNL     1     -50.295 -41.906 -84.115  0.00  0.00    +0.000 C 
ATOM     19  C   UNL     1     -51.277 -42.003 -83.018  0.00  0.00    +0.000 A 
ATOM     20  C   UNL     1     -51.309 -42.646 -81.803  0.00  0.00    +0.000 A 
ATOM     21  C   UNL     1     -52.522 -42.230 -81.213  0.00  0.00    +0.000 A 
ATOM     22  N   UNL     1     -53.210 -41.440 -82.056  0.00  0.00    +0.000 NA
ATOM     23  O   UNL     1     -52.426 -41.300 -83.182  0.00  0.00    +0.000 OA
ENDBRANCH  17  21
ENDBRANCH  15  17
ENDBRANCH   1  15
BRANCH  13  24
ATOM     24  C   UNL     1     -53.107 -41.210 -76.597  0.00  0.00    +0.000 C 
ATOM     25  O   UNL     1     -53.194 -39.994 -76.567  0.00  0.00    +0.000 OA
BRANCH  24  26
ATOM     26  C   UNL     1     -51.791 -41.870 -76.506  0.00  0.00    +0.000 C 
ATOM     27  C   UNL     1     -50.756 -41.333 -75.552  0.00  0.00    +0.000 C 
ATOM     28  C   UNL     1     -50.542 -41.202 -77.029  0.00  0.00    +0.000 C 
ENDBRANCH  24  26
ENDBRANCH  13  24
TORSDOF 5
