REMARK VINA RESULT:    -5.335     10.097     12.411
REMARK INTER + INTRA:          -7.768
REMARK INTER:                  -6.770
REMARK INTRA:                  -0.998
REMARK UNBOUND:                -0.873
REMARK  Name = 
REMARK  6 active torsions:
REMARK  status: ('A' for Active; 'I' for Inactive)
REMARK    1  A    between atoms: C_1  and  C_2
REMARK    2  A    between atoms: C_4  and  C_5
REMARK    3  A    between atoms: C_5  and  S_6
REMARK    4  A    between atoms: S_6  and  C_8
REMARK    5  A    between atoms: C_20  and  C_21
REMARK    6  A    between atoms: C_21  and  C_23
REMARK                            x       y       z     vdW  Elec       q    Type
REMARK                         _______ _______ _______ _____ _____    ______ ____
ROOT
ATOM      1  C   UNL     1     -65.969 -43.544 -70.611  0.00  0.00    +0.000 A 
ATOM      2  N   UNL     1     -67.146 -43.570 -71.384  0.00  0.00    +0.000 N 
ATOM      3  C   UNL     1     -67.098 -43.911 -72.763  0.00  0.00    +0.000 A 
ATOM      4  C   UNL     1     -68.227 -44.333 -73.490  0.00  0.00    +0.000 A 
ATOM      5 BR   UNL     1     -69.884 -44.654 -72.624  0.00  0.00    +0.000 Br
ATOM      6  C   UNL     1     -68.160 -44.553 -74.873  0.00  0.00    +0.000 A 
ATOM      7  C   UNL     1     -66.943 -44.378 -75.543  0.00  0.00    +0.000 A 
ATOM      8  C   UNL     1     -65.810 -43.962 -74.844  0.00  0.00    +0.000 A 
ATOM      9 CL   UNL     1     -64.344 -43.845 -75.748  0.00  0.00    +0.000 Cl
ATOM     10  C   UNL     1     -65.900 -43.710 -73.466  0.00  0.00    +0.000 A 
ATOM     11  C   UNL     1     -64.779 -43.186 -72.661  0.00  0.00    +0.000 A 
ATOM     12  O   UNL     1     -63.926 -42.453 -73.145  0.00  0.00    +0.000 OA
ATOM     13  C   UNL     1     -64.752 -43.512 -71.197  0.00  0.00    +0.000 A 
ATOM     14  H   UNL     1     -67.935 -43.997 -70.879  0.00  0.00    +0.000 HD
ENDROOT
BRANCH   1  15
ATOM     15  S   UNL     1     -66.261 -44.003 -68.882  0.00  0.00    +0.000 S 
ATOM     16  O   UNL     1     -67.643 -44.598 -68.886  0.00  0.00    +0.000 OA
BRANCH  15  17
ATOM     17  C   UNL     1     -66.318 -42.504 -67.857  0.00  0.00    +0.000 C 
BRANCH  17  21
ATOM     18  C   UNL     1     -63.429 -38.434 -69.002  0.00  0.00    +0.000 C 
ATOM     19  C   UNL     1     -64.145 -39.619 -68.494  0.00  0.00    +0.000 A 
ATOM     20  C   UNL     1     -65.239 -40.340 -68.910  0.00  0.00    +0.000 A 
ATOM     21  C   UNL     1     -65.321 -41.419 -68.002  0.00  0.00    +0.000 A 
ATOM     22  N   UNL     1     -64.372 -41.310 -67.055  0.00  0.00    +0.000 NA
ATOM     23  O   UNL     1     -63.639 -40.185 -67.369  0.00  0.00    +0.000 OA
ENDBRANCH  17  21
ENDBRANCH  15  17
ENDBRANCH   1  15
BRANCH  13  24
ATOM     24  C   UNL     1     -63.406 -43.910 -70.697  0.00  0.00    +0.000 C 
ATOM     25  O   UNL     1     -62.948 -45.009 -70.956  0.00  0.00    +0.000 OA
BRANCH  24  26
ATOM     26  C   UNL     1     -62.617 -42.932 -69.923  0.00  0.00    +0.000 C 
ATOM     27  C   UNL     1     -62.275 -41.601 -70.542  0.00  0.00    +0.000 C 
ATOM     28  C   UNL     1     -61.191 -42.606 -70.297  0.00  0.00    +0.000 C 
ENDBRANCH  24  26
ENDBRANCH  13  24
TORSDOF 5
