REMARK VINA RESULT:    -6.490     10.407     13.216
REMARK INTER + INTRA:          -9.187
REMARK INTER:                  -8.452
REMARK INTRA:                  -0.736
REMARK UNBOUND:                -0.800
REMARK  Name = 
REMARK  8 active torsions:
REMARK  status: ('A' for Active; 'I' for Inactive)
REMARK    1  A    between atoms: C_1  and  C_2
REMARK    2  A    between atoms: C_4  and  C_5
REMARK    3  A    between atoms: C_5  and  S_6
REMARK    4  A    between atoms: S_6  and  C_8
REMARK    5  A    between atoms: C_20  and  C_21
REMARK    6  A    between atoms: C_21  and  C_23
REMARK    7  A    between atoms: C_23  and  C_24
REMARK    8  A    between atoms: C_23  and  C_25
REMARK                            x       y       z     vdW  Elec       q    Type
REMARK                         _______ _______ _______ _____ _____    ______ ____
ROOT
ATOM      1  C   UNL     1     -55.315 -43.165 -77.812  0.00  0.00    +0.000 A 
ATOM      2  N   UNL     1     -54.844 -44.367 -77.293  0.00  0.00    +0.000 N 
ATOM      3  C   UNL     1     -53.859 -44.401 -76.286  0.00  0.00    +0.000 A 
ATOM      4  C   UNL     1     -53.667 -45.528 -75.464  0.00  0.00    +0.000 A 
ATOM      5 BR   UNL     1     -54.841 -47.015 -75.558  0.00  0.00    +0.000 Br
ATOM      6  C   UNL     1     -52.632 -45.565 -74.525  0.00  0.00    +0.000 A 
ATOM      7  C   UNL     1     -51.778 -44.475 -74.391  0.00  0.00    +0.000 A 
ATOM      8  C   UNL     1     -51.957 -43.336 -75.197  0.00  0.00    +0.000 A 
ATOM      9 CL   UNL     1     -50.881 -42.021 -74.890  0.00  0.00    +0.000 Cl
ATOM     10  C   UNL     1     -52.996 -43.302 -76.150  0.00  0.00    +0.000 A 
ATOM     11  C   UNL     1     -53.248 -42.163 -77.069  0.00  0.00    +0.000 A 
ATOM     12  O   UNL     1     -52.339 -41.389 -77.354  0.00  0.00    +0.000 OA
ATOM     13  C   UNL     1     -54.646 -41.998 -77.660  0.00  0.00    +0.000 A 
ATOM     14  H   UNL     1     -55.552 -45.113 -77.257  0.00  0.00    +0.000 HD
ENDROOT
BRANCH   1  15
ATOM     15  S   UNL     1     -57.003 -43.347 -78.502  0.00  0.00    +0.000 S 
ATOM     16  O   UNL     1     -57.355 -41.959 -78.963  0.00  0.00    +0.000 OA
BRANCH  15  17
ATOM     17  C   UNL     1     -58.015 -43.744 -77.036  0.00  0.00    +0.000 C 
BRANCH  17  21
ATOM     18  C   UNL     1     -57.042 -40.987 -72.763  0.00  0.00    +0.000 C 
ATOM     19  C   UNL     1     -57.435 -41.613 -74.045  0.00  0.00    +0.000 A 
ATOM     20  C   UNL     1     -57.082 -42.761 -74.717  0.00  0.00    +0.000 A 
ATOM     21  C   UNL     1     -57.881 -42.761 -75.897  0.00  0.00    +0.000 A 
ATOM     22  N   UNL     1     -58.649 -41.658 -75.926  0.00  0.00    +0.000 NA
ATOM     23  O   UNL     1     -58.371 -40.951 -74.772  0.00  0.00    +0.000 OA
ENDBRANCH  17  21
ENDBRANCH  15  17
ENDBRANCH   1  15
BRANCH  13  24
ATOM     24  C   UNL     1     -55.098 -40.584 -77.950  0.00  0.00    +0.000 C 
ATOM     25  O   UNL     1     -55.850 -40.002 -77.169  0.00  0.00    +0.000 OA
BRANCH  24  26
ATOM     26  C   UNL     1     -54.680 -39.890 -79.247  0.00  0.00    +0.000 C 
ATOM     27  C   UNL     1     -53.678 -38.767 -78.990  0.00  0.00    +0.000 C 
ATOM     28  C   UNL     1     -54.117 -40.880 -80.270  0.00  0.00    +0.000 C 
ENDBRANCH  24  26
ENDBRANCH  13  24
TORSDOF 5
