REMARK VINA RESULT:    -7.557      2.772      3.955
REMARK INTER + INTRA:         -10.525
REMARK INTER:                  -9.498
REMARK INTRA:                  -1.028
REMARK UNBOUND:                -0.760
REMARK  Name = 
REMARK  8 active torsions:
REMARK  status: ('A' for Active; 'I' for Inactive)
REMARK    1  A    between atoms: C_1  and  C_2
REMARK    2  A    between atoms: C_4  and  C_5
REMARK    3  A    between atoms: C_5  and  S_6
REMARK    4  A    between atoms: S_6  and  C_8
REMARK    5  A    between atoms: C_20  and  C_21
REMARK    6  A    between atoms: C_21  and  C_23
REMARK    7  A    between atoms: C_23  and  C_24
REMARK    8  A    between atoms: C_23  and  C_25
REMARK                            x       y       z     vdW  Elec       q    Type
REMARK                         _______ _______ _______ _____ _____    ______ ____
ROOT
ATOM      1  C   UNL     1     -55.478 -41.942 -63.003  0.00  0.00    +0.000 A 
ATOM      2  N   UNL     1     -54.732 -43.115 -63.051  0.00  0.00    +0.000 N 
ATOM      3  C   UNL     1     -53.367 -43.109 -63.402  0.00  0.00    +0.000 A 
ATOM      4  C   UNL     1     -52.502 -44.167 -63.065  0.00  0.00    +0.000 A 
ATOM      5 BR   UNL     1     -53.092 -45.599 -61.970  0.00  0.00    +0.000 Br
ATOM      6  C   UNL     1     -51.171 -44.172 -63.493  0.00  0.00    +0.000 A 
ATOM      7  C   UNL     1     -50.685 -43.117 -64.259  0.00  0.00    +0.000 A 
ATOM      8  C   UNL     1     -51.531 -42.046 -64.600  0.00  0.00    +0.000 A 
ATOM      9 CL   UNL     1     -50.796 -40.762 -65.492  0.00  0.00    +0.000 Cl
ATOM     10  C   UNL     1     -52.875 -42.045 -64.175  0.00  0.00    +0.000 A 
ATOM     11  C   UNL     1     -53.856 -40.980 -64.509  0.00  0.00    +0.000 A 
ATOM     12  O   UNL     1     -53.688 -40.279 -65.503  0.00  0.00    +0.000 OA
ATOM     13  C   UNL     1     -55.073 -40.799 -63.606  0.00  0.00    +0.000 A 
ATOM     14  H   UNL     1     -55.016 -43.820 -62.357  0.00  0.00    +0.000 HD
ENDROOT
BRANCH   1  15
ATOM     15  S   UNL     1     -56.909 -42.102 -61.869  0.00  0.00    +0.000 S 
ATOM     16  O   UNL     1     -56.348 -42.844 -60.686  0.00  0.00    +0.000 OA
BRANCH  15  17
ATOM     17  C   UNL     1     -58.035 -43.220 -62.770  0.00  0.00    +0.000 C 
BRANCH  17  21
ATOM     18  C   UNL     1     -58.109 -42.672 -67.918  0.00  0.00    +0.000 C 
ATOM     19  C   UNL     1     -58.228 -42.676 -66.443  0.00  0.00    +0.000 A 
ATOM     20  C   UNL     1     -57.745 -43.470 -65.429  0.00  0.00    +0.000 A 
ATOM     21  C   UNL     1     -58.229 -42.874 -64.228  0.00  0.00    +0.000 A 
ATOM     22  N   UNL     1     -58.976 -41.797 -64.524  0.00  0.00    +0.000 NA
ATOM     23  O   UNL     1     -58.969 -41.676 -65.901  0.00  0.00    +0.000 OA
ENDBRANCH  17  21
ENDBRANCH  15  17
ENDBRANCH   1  15
BRANCH  13  24
ATOM     24  C   UNL     1     -55.623 -39.396 -63.480  0.00  0.00    +0.000 C 
ATOM     25  O   UNL     1     -56.818 -39.180 -63.679  0.00  0.00    +0.000 OA
BRANCH  24  26
ATOM     26  C   UNL     1     -54.690 -38.226 -63.169  0.00  0.00    +0.000 C 
ATOM     27  C   UNL     1     -54.804 -37.118 -64.213  0.00  0.00    +0.000 C 
ATOM     28  C   UNL     1     -54.929 -37.660 -61.766  0.00  0.00    +0.000 C 
ENDBRANCH  24  26
ENDBRANCH  13  24
TORSDOF 5
