REMARK VINA RESULT:    -6.753     12.695     14.827
REMARK INTER + INTRA:          -9.567
REMARK INTER:                  -8.797
REMARK INTRA:                  -0.770
REMARK UNBOUND:                -1.235
REMARK  Name = 
REMARK  5 active torsions:
REMARK  status: ('A' for Active; 'I' for Inactive)
REMARK    1  A    between atoms: C_1  and  C_2
REMARK    2  A    between atoms: C_2  and  C_4
REMARK    3  A    between atoms: C_5  and  S_6
REMARK    4  A    between atoms: S_6  and  C_8
REMARK    5  A    between atoms: C_8  and  C_9
REMARK                            x       y       z     vdW  Elec       q    Type
REMARK                         _______ _______ _______ _____ _____    ______ ____
ROOT
ATOM      1  C   UNL     1     -53.416 -41.429 -78.053  0.00  0.00    +0.000 A 
ATOM      2  C   UNL     1     -54.729 -41.203 -78.294  0.00  0.00    +0.000 A 
ATOM      3  N   UNL     1     -55.318 -41.401 -79.530  0.00  0.00    +0.000 N 
ATOM      4  C   UNL     1     -54.589 -41.736 -80.681  0.00  0.00    +0.000 A 
ATOM      5  C   UNL     1     -55.236 -41.918 -81.917  0.00  0.00    +0.000 A 
ATOM      6 BR   UNL     1     -57.109 -41.641 -82.089  0.00  0.00    +0.000 Br
ATOM      7  C   UNL     1     -54.527 -42.307 -83.050  0.00  0.00    +0.000 A 
ATOM      8  C   UNL     1     -53.155 -42.526 -82.960  0.00  0.00    +0.000 A 
ATOM      9  C   UNL     1     -52.491 -42.375 -81.737  0.00  0.00    +0.000 A 
ATOM     10 CL   UNL     1     -50.788 -42.673 -81.786  0.00  0.00    +0.000 Cl
ATOM     11  C   UNL     1     -53.211 -41.999 -80.584  0.00  0.00    +0.000 A 
ATOM     12  C   UNL     1     -52.583 -41.833 -79.243  0.00  0.00    +0.000 A 
ATOM     13  O   UNL     1     -51.376 -41.989 -79.112  0.00  0.00    +0.000 OA
ATOM     14  H   UNL     1     -56.179 -40.874 -79.690  0.00  0.00    +0.000 HD
ENDROOT
BRANCH   1  16
ATOM     15  C   UNL     1     -52.757 -42.429 -75.741  0.00  0.00    +0.000 C 
ATOM     16  C   UNL     1     -52.754 -41.268 -76.711  0.00  0.00    +0.000 C 
ATOM     17  O   UNL     1     -52.232 -40.208 -76.368  0.00  0.00    +0.000 OA
ENDBRANCH   1  16
BRANCH   2  18
ATOM     18  S   UNL     1     -55.817 -40.444 -77.043  0.00  0.00    +0.000 S 
ATOM     19  O   UNL     1     -57.020 -40.025 -77.847  0.00  0.00    +0.000 OA
BRANCH  18  20
ATOM     20  C   UNL     1     -56.318 -41.958 -76.135  0.00  0.00    +0.000 C 
BRANCH  20  21
ATOM     21  C   UNL     1     -56.761 -41.679 -74.715  0.00  0.00    +0.000 A 
ATOM     22  C   UNL     1     -56.155 -42.326 -73.624  0.00  0.00    +0.000 A 
ATOM     23  C   UNL     1     -56.560 -42.052 -72.314  0.00  0.00    +0.000 A 
ATOM     24  C   UNL     1     -57.567 -41.121 -72.074  0.00  0.00    +0.000 A 
ATOM     25  C   UNL     1     -58.166 -40.460 -73.145  0.00  0.00    +0.000 A 
ATOM     26  C   UNL     1     -57.766 -40.735 -74.455  0.00  0.00    +0.000 A 
ENDBRANCH  20  21
ENDBRANCH  18  20
ENDBRANCH   2  18
TORSDOF 4
