REMARK VINA RESULT:    -6.748      3.335      4.125
REMARK INTER + INTRA:          -9.068
REMARK INTER:                  -8.381
REMARK INTRA:                  -0.687
REMARK UNBOUND:                -0.741
REMARK  Name = 
REMARK  5 active torsions:
REMARK  status: ('A' for Active; 'I' for Inactive)
REMARK    1  A    between atoms: C_1  and  C_2
REMARK    2  A    between atoms: C_2  and  C_4
REMARK    3  A    between atoms: C_5  and  S_6
REMARK    4  A    between atoms: S_6  and  C_8
REMARK    5  A    between atoms: C_8  and  C_9
REMARK                            x       y       z     vdW  Elec       q    Type
REMARK                         _______ _______ _______ _____ _____    ______ ____
ROOT
ATOM      1  C   UNL     1     -55.655 -42.432 -77.649  0.00  0.00    +0.000 A 
ATOM      2  C   UNL     1     -54.697 -41.877 -78.422  0.00  0.00    +0.000 A 
ATOM      3  N   UNL     1     -54.934 -41.360 -79.685  0.00  0.00    +0.000 N 
ATOM      4  C   UNL     1     -56.138 -41.613 -80.364  0.00  0.00    +0.000 A 
ATOM      5  C   UNL     1     -56.284 -41.283 -81.723  0.00  0.00    +0.000 A 
ATOM      6 BR   UNL     1     -54.840 -40.538 -82.708  0.00  0.00    +0.000 Br
ATOM      7  C   UNL     1     -57.487 -41.509 -82.384  0.00  0.00    +0.000 A 
ATOM      8  C   UNL     1     -58.561 -42.063 -81.690  0.00  0.00    +0.000 A 
ATOM      9  C   UNL     1     -58.446 -42.371 -80.329  0.00  0.00    +0.000 A 
ATOM     10 CL   UNL     1     -59.825 -43.112 -79.600  0.00  0.00    +0.000 Cl
ATOM     11  C   UNL     1     -57.241 -42.118 -79.654  0.00  0.00    +0.000 A 
ATOM     12  C   UNL     1     -57.048 -42.347 -78.195  0.00  0.00    +0.000 A 
ATOM     13  O   UNL     1     -58.006 -42.429 -77.435  0.00  0.00    +0.000 OA
ATOM     14  H   UNL     1     -54.108 -41.331 -80.285  0.00  0.00    +0.000 HD
ENDROOT
BRANCH   1  16
ATOM     15  C   UNL     1     -55.323 -42.255 -75.073  0.00  0.00    +0.000 C 
ATOM     16  C   UNL     1     -55.415 -43.097 -76.325  0.00  0.00    +0.000 C 
ATOM     17  O   UNL     1     -55.297 -44.324 -76.235  0.00  0.00    +0.000 OA
ENDBRANCH   1  16
BRANCH   2  18
ATOM     18  S   UNL     1     -52.957 -41.917 -77.925  0.00  0.00    +0.000 S 
ATOM     19  O   UNL     1     -52.213 -41.774 -79.224  0.00  0.00    +0.000 OA
BRANCH  18  20
ATOM     20  C   UNL     1     -52.830 -40.285 -77.100  0.00  0.00    +0.000 C 
BRANCH  20  21
ATOM     21  C   UNL     1     -51.575 -39.963 -76.324  0.00  0.00    +0.000 A 
ATOM     22  C   UNL     1     -50.672 -40.936 -75.887  0.00  0.00    +0.000 A 
ATOM     23  C   UNL     1     -49.490 -40.571 -75.236  0.00  0.00    +0.000 A 
ATOM     24  C   UNL     1     -49.182 -39.227 -75.035  0.00  0.00    +0.000 A 
ATOM     25  C   UNL     1     -50.056 -38.245 -75.491  0.00  0.00    +0.000 A 
ATOM     26  C   UNL     1     -51.239 -38.609 -76.135  0.00  0.00    +0.000 A 
ENDBRANCH  20  21
ENDBRANCH  18  20
ENDBRANCH   2  18
TORSDOF 4
