REMARK VINA RESULT:    -6.488     12.805     15.502
REMARK INTER + INTRA:          -9.254
REMARK INTER:                  -8.608
REMARK INTRA:                  -0.646
REMARK UNBOUND:                -0.869
REMARK  Name = 
REMARK  6 active torsions:
REMARK  status: ('A' for Active; 'I' for Inactive)
REMARK    1  A    between atoms: C_1  and  C_2
REMARK    2  A    between atoms: C_4  and  C_5
REMARK    3  A    between atoms: C_5  and  S_6
REMARK    4  A    between atoms: S_6  and  C_8
REMARK    5  A    between atoms: C_20  and  C_21
REMARK    6  A    between atoms: C_21  and  C_23
REMARK                            x       y       z     vdW  Elec       q    Type
REMARK                         _______ _______ _______ _____ _____    ______ ____
ROOT
ATOM      1  C   UNL     1     -54.202 -43.519 -77.554  0.00  0.00    +0.000 A 
ATOM      2  N   UNL     1     -53.927 -42.396 -78.358  0.00  0.00    +0.000 N 
ATOM      3  C   UNL     1     -54.675 -42.154 -79.543  0.00  0.00    +0.000 A 
ATOM      4  C   UNL     1     -54.734 -40.895 -80.169  0.00  0.00    +0.000 A 
ATOM      5 BR   UNL     1     -53.952 -39.364 -79.367  0.00  0.00    +0.000 Br
ATOM      6  C   UNL     1     -55.392 -40.725 -81.396  0.00  0.00    +0.000 A 
ATOM      7  C   UNL     1     -56.027 -41.818 -81.997  0.00  0.00    +0.000 A 
ATOM      8  C   UNL     1     -55.984 -43.075 -81.394  0.00  0.00    +0.000 A 
ATOM      9 CL   UNL     1     -56.858 -44.340 -82.179  0.00  0.00    +0.000 Cl
ATOM     10  C   UNL     1     -55.291 -43.239 -80.185  0.00  0.00    +0.000 A 
ATOM     11  C   UNL     1     -55.118 -44.544 -79.518  0.00  0.00    +0.000 A 
ATOM     12  O   UNL     1     -55.064 -45.591 -80.152  0.00  0.00    +0.000 OA
ATOM     13  C   UNL     1     -54.929 -44.554 -78.030  0.00  0.00    +0.000 A 
ATOM     14  H   UNL     1     -53.751 -41.550 -77.798  0.00  0.00    +0.000 HD
ENDROOT
BRANCH   1  15
ATOM     15  S   UNL     1     -53.889 -43.210 -75.796  0.00  0.00    +0.000 S 
ATOM     16  O   UNL     1     -54.587 -41.906 -75.520  0.00  0.00    +0.000 OA
BRANCH  15  17
ATOM     17  C   UNL     1     -52.111 -42.942 -75.534  0.00  0.00    +0.000 C 
BRANCH  17  21
ATOM     18  C   UNL     1     -49.238 -38.705 -75.631  0.00  0.00    +0.000 C 
ATOM     19  C   UNL     1     -50.196 -39.821 -75.735  0.00  0.00    +0.000 A 
ATOM     20  C   UNL     1     -50.227 -41.115 -75.274  0.00  0.00    +0.000 A 
ATOM     21  C   UNL     1     -51.495 -41.601 -75.661  0.00  0.00    +0.000 A 
ATOM     22  N   UNL     1     -52.157 -40.673 -76.375  0.00  0.00    +0.000 NA
ATOM     23  O   UNL     1     -51.341 -39.562 -76.417  0.00  0.00    +0.000 OA
ENDBRANCH  17  21
ENDBRANCH  15  17
ENDBRANCH   1  15
BRANCH  13  24
ATOM     24  C   UNL     1     -55.720 -45.607 -77.332  0.00  0.00    +0.000 C 
ATOM     25  O   UNL     1     -56.911 -45.452 -77.125  0.00  0.00    +0.000 OA
BRANCH  24  26
ATOM     26  C   UNL     1     -55.047 -46.859 -76.939  0.00  0.00    +0.000 C 
ATOM     27  C   UNL     1     -55.870 -48.019 -76.441  0.00  0.00    +0.000 C 
ATOM     28  C   UNL     1     -54.971 -47.287 -75.492  0.00  0.00    +0.000 C 
ENDBRANCH  24  26
ENDBRANCH  13  24
TORSDOF 5
