REMARK VINA RESULT:    -6.157     12.212     15.168
REMARK INTER + INTRA:          -8.867
REMARK INTER:                  -7.730
REMARK INTRA:                  -1.136
REMARK UNBOUND:                -0.910
REMARK  Name = 
REMARK  6 active torsions:
REMARK  status: ('A' for Active; 'I' for Inactive)
REMARK    1  A    between atoms: C_1  and  C_2
REMARK    2  A    between atoms: C_4  and  C_5
REMARK    3  A    between atoms: C_5  and  S_6
REMARK    4  A    between atoms: S_6  and  C_8
REMARK    5  A    between atoms: C_20  and  C_21
REMARK    6  A    between atoms: C_21  and  C_23
REMARK                            x       y       z     vdW  Elec       q    Type
REMARK                         _______ _______ _______ _____ _____    ______ ____
ROOT
ATOM      1  C   UNL     1     -56.782 -42.173 -62.165  0.00  0.00    +0.000 A 
ATOM      2  N   UNL     1     -55.568 -42.787 -61.799  0.00  0.00    +0.000 N 
ATOM      3  C   UNL     1     -55.347 -43.210 -60.459  0.00  0.00    +0.000 A 
ATOM      4  C   UNL     1     -54.364 -44.153 -60.104  0.00  0.00    +0.000 A 
ATOM      5 BR   UNL     1     -53.368 -45.075 -61.429  0.00  0.00    +0.000 Br
ATOM      6  C   UNL     1     -54.105 -44.459 -58.761  0.00  0.00    +0.000 A 
ATOM      7  C   UNL     1     -54.853 -43.840 -57.753  0.00  0.00    +0.000 A 
ATOM      8  C   UNL     1     -55.834 -42.904 -58.080  0.00  0.00    +0.000 A 
ATOM      9 CL   UNL     1     -56.749 -42.252 -56.769  0.00  0.00    +0.000 Cl
ATOM     10  C   UNL     1     -56.059 -42.579 -59.427  0.00  0.00    +0.000 A 
ATOM     11  C   UNL     1     -57.013 -41.542 -59.864  0.00  0.00    +0.000 A 
ATOM     12  O   UNL     1     -57.262 -40.563 -59.172  0.00  0.00    +0.000 OA
ATOM     13  C   UNL     1     -57.619 -41.674 -61.229  0.00  0.00    +0.000 A 
ATOM     14  H   UNL     1     -55.244 -43.462 -62.505  0.00  0.00    +0.000 HD
ENDROOT
BRANCH   1  15
ATOM     15  S   UNL     1     -57.258 -42.537 -63.876  0.00  0.00    +0.000 S 
ATOM     16  O   UNL     1     -57.435 -44.031 -63.900  0.00  0.00    +0.000 OA
BRANCH  15  17
ATOM     17  C   UNL     1     -55.877 -42.136 -64.987  0.00  0.00    +0.000 C 
BRANCH  17  21
ATOM     18  C   UNL     1     -53.837 -37.537 -64.039  0.00  0.00    +0.000 C 
ATOM     19  C   UNL     1     -54.224 -38.929 -64.334  0.00  0.00    +0.000 A 
ATOM     20  C   UNL     1     -55.413 -39.619 -64.352  0.00  0.00    +0.000 A 
ATOM     21  C   UNL     1     -55.068 -40.907 -64.818  0.00  0.00    +0.000 A 
ATOM     22  N   UNL     1     -53.739 -41.003 -65.000  0.00  0.00    +0.000 NA
ATOM     23  O   UNL     1     -53.217 -39.763 -64.698  0.00  0.00    +0.000 OA
ENDBRANCH  17  21
ENDBRANCH  15  17
ENDBRANCH   1  15
BRANCH  13  24
ATOM     24  C   UNL     1     -59.083 -41.393 -61.265  0.00  0.00    +0.000 C 
ATOM     25  O   UNL     1     -59.869 -42.129 -60.694  0.00  0.00    +0.000 OA
BRANCH  24  26
ATOM     26  C   UNL     1     -59.558 -40.183 -61.962  0.00  0.00    +0.000 C 
ATOM     27  C   UNL     1     -58.610 -39.031 -62.176  0.00  0.00    +0.000 C 
ATOM     28  C   UNL     1     -59.756 -38.880 -61.223  0.00  0.00    +0.000 C 
ENDBRANCH  24  26
ENDBRANCH  13  24
TORSDOF 5
