REMARK VINA RESULT:    -6.334      9.279     12.863
REMARK INTER + INTRA:          -8.340
REMARK INTER:                  -7.562
REMARK INTRA:                  -0.778
REMARK UNBOUND:                -0.524
REMARK  Name = 
REMARK  6 active torsions:
REMARK  status: ('A' for Active; 'I' for Inactive)
REMARK    1  A    between atoms: C_1  and  C_2
REMARK    2  A    between atoms: C_2  and  C_4
REMARK    3  A    between atoms: C_5  and  S_6
REMARK    4  A    between atoms: S_6  and  C_8
REMARK    5  A    between atoms: C_8  and  C_9
REMARK    6  A    between atoms: C_11  and  C_12
REMARK                            x       y       z     vdW  Elec       q    Type
REMARK                         _______ _______ _______ _____ _____    ______ ____
ROOT
ATOM      1  C   UNL     1     -55.212 -43.986 -76.172  0.00  0.00    +0.000 A 
ATOM      2  C   UNL     1     -56.358 -43.432 -76.629  0.00  0.00    +0.000 A 
ATOM      3  N   UNL     1     -57.421 -44.170 -77.117  0.00  0.00    +0.000 N 
ATOM      4  C   UNL     1     -57.361 -45.558 -77.303  0.00  0.00    +0.000 A 
ATOM      5  C   UNL     1     -58.457 -46.261 -77.839  0.00  0.00    +0.000 A 
ATOM      6 BR   UNL     1     -60.024 -45.346 -78.401  0.00  0.00    +0.000 Br
ATOM      7  C   UNL     1     -58.426 -47.645 -77.975  0.00  0.00    +0.000 A 
ATOM      8  C   UNL     1     -57.295 -48.350 -77.567  0.00  0.00    +0.000 A 
ATOM      9  C   UNL     1     -56.201 -47.677 -77.012  0.00  0.00    +0.000 A 
ATOM     10 CL   UNL     1     -54.875 -48.689 -76.554  0.00  0.00    +0.000 Cl
ATOM     11  C   UNL     1     -56.234 -46.276 -76.863  0.00  0.00    +0.000 A 
ATOM     12  C   UNL     1     -55.109 -45.484 -76.291  0.00  0.00    +0.000 A 
ATOM     13  O   UNL     1     -54.075 -46.048 -75.956  0.00  0.00    +0.000 OA
ATOM     14  H   UNL     1     -58.050 -43.668 -77.745  0.00  0.00    +0.000 HD
ENDROOT
BRANCH   1  16
ATOM     15  C   UNL     1     -52.998 -42.665 -76.557  0.00  0.00    +0.000 C 
ATOM     16  C   UNL     1     -54.049 -43.205 -75.610  0.00  0.00    +0.000 C 
ATOM     17  O   UNL     1     -53.925 -43.008 -74.402  0.00  0.00    +0.000 OA
ENDBRANCH   1  16
BRANCH   2  18
ATOM     18  S   UNL     1     -56.534 -41.627 -76.804  0.00  0.00    +0.000 S 
ATOM     19  O   UNL     1     -57.021 -41.456 -78.218  0.00  0.00    +0.000 OA
BRANCH  18  20
ATOM     20  C   UNL     1     -57.993 -41.361 -75.733  0.00  0.00    +0.000 C 
BRANCH  20  21
ATOM     21  C   UNL     1     -57.630 -41.216 -74.292  0.00  0.00    +0.000 A 
ATOM     22  C   UNL     1     -57.052 -42.150 -73.394  0.00  0.00    +0.000 A 
ATOM     23  C   UNL     1     -56.921 -41.462 -72.212  0.00  0.00    +0.000 A 
ATOM     24  C   UNL     1     -56.441 -41.806 -70.861  0.00  0.00    +0.000 C 
ATOM     25  O   UNL     1     -57.355 -40.188 -72.391  0.00  0.00    +0.000 OA
ATOM     26  N   UNL     1     -57.794 -40.026 -73.693  0.00  0.00    +0.000 NA
ENDBRANCH  20  21
ENDBRANCH  18  20
ENDBRANCH   2  18
TORSDOF 4
