REMARK VINA RESULT:    -5.142     15.257     17.070
REMARK INTER + INTRA:          -7.149
REMARK INTER:                  -6.561
REMARK INTRA:                  -0.588
REMARK UNBOUND:                -0.804
REMARK  Name = 
REMARK  6 active torsions:
REMARK  status: ('A' for Active; 'I' for Inactive)
REMARK    1  A    between atoms: C_1  and  C_2
REMARK    2  A    between atoms: C_2  and  C_4
REMARK    3  A    between atoms: C_5  and  S_6
REMARK    4  A    between atoms: S_6  and  C_8
REMARK    5  A    between atoms: C_8  and  C_9
REMARK    6  A    between atoms: C_11  and  C_12
REMARK                            x       y       z     vdW  Elec       q    Type
REMARK                         _______ _______ _______ _____ _____    ______ ____
ROOT
ATOM      1  C   UNL     1     -56.090 -44.031 -76.644  0.00  0.00    +0.000 A 
ATOM      2  C   UNL     1     -57.237 -43.773 -77.309  0.00  0.00    +0.000 A 
ATOM      3  N   UNL     1     -58.077 -44.764 -77.777  0.00  0.00    +0.000 N 
ATOM      4  C   UNL     1     -57.788 -46.132 -77.664  0.00  0.00    +0.000 A 
ATOM      5  C   UNL     1     -58.716 -47.103 -78.082  0.00  0.00    +0.000 A 
ATOM      6 BR   UNL     1     -60.367 -46.597 -78.877  0.00  0.00    +0.000 Br
ATOM      7  C   UNL     1     -58.461 -48.461 -77.912  0.00  0.00    +0.000 A 
ATOM      8  C   UNL     1     -57.269 -48.869 -77.321  0.00  0.00    +0.000 A 
ATOM      9  C   UNL     1     -56.337 -47.923 -76.878  0.00  0.00    +0.000 A 
ATOM     10 CL   UNL     1     -54.906 -48.578 -76.160  0.00  0.00    +0.000 Cl
ATOM     11  C   UNL     1     -56.606 -46.549 -77.024  0.00  0.00    +0.000 A 
ATOM     12  C   UNL     1     -55.687 -45.479 -76.550  0.00  0.00    +0.000 A 
ATOM     13  O   UNL     1     -54.579 -45.768 -76.113  0.00  0.00    +0.000 OA
ATOM     14  H   UNL     1     -58.709 -44.500 -78.530  0.00  0.00    +0.000 HD
ENDROOT
BRANCH   1  16
ATOM     15  C   UNL     1     -53.972 -42.547 -76.798  0.00  0.00    +0.000 C 
ATOM     16  C   UNL     1     -55.196 -42.992 -76.032  0.00  0.00    +0.000 C 
ATOM     17  O   UNL     1     -55.418 -42.524 -74.913  0.00  0.00    +0.000 OA
ENDBRANCH   1  16
BRANCH   2  18
ATOM     18  S   UNL     1     -57.708 -42.065 -77.761  0.00  0.00    +0.000 S 
ATOM     19  O   UNL     1     -56.656 -41.664 -78.759  0.00  0.00    +0.000 OA
BRANCH  18  20
ATOM     20  C   UNL     1     -59.212 -42.427 -78.736  0.00  0.00    +0.000 C 
BRANCH  20  21
ATOM     21  C   UNL     1     -60.092 -41.230 -78.870  0.00  0.00    +0.000 A 
ATOM     22  C   UNL     1     -59.820 -39.879 -78.535  0.00  0.00    +0.000 A 
ATOM     23  C   UNL     1     -60.932 -39.189 -78.950  0.00  0.00    +0.000 A 
ATOM     24  C   UNL     1     -61.333 -37.769 -78.935  0.00  0.00    +0.000 C 
ATOM     25  O   UNL     1     -61.819 -40.062 -79.495  0.00  0.00    +0.000 OA
ATOM     26  N   UNL     1     -61.295 -41.343 -79.454  0.00  0.00    +0.000 NA
ENDBRANCH  20  21
ENDBRANCH  18  20
ENDBRANCH   2  18
TORSDOF 4
