REMARK VINA RESULT:    -5.249      4.165      7.504
REMARK INTER + INTRA:          -7.318
REMARK INTER:                  -6.551
REMARK INTRA:                  -0.766
REMARK UNBOUND:                -0.841
REMARK  Name = 
REMARK  6 active torsions:
REMARK  status: ('A' for Active; 'I' for Inactive)
REMARK    1  A    between atoms: C_1  and  C_2
REMARK    2  A    between atoms: C_2  and  C_4
REMARK    3  A    between atoms: C_5  and  S_6
REMARK    4  A    between atoms: S_6  and  C_8
REMARK    5  A    between atoms: C_8  and  C_9
REMARK    6  A    between atoms: C_11  and  C_12
REMARK                            x       y       z     vdW  Elec       q    Type
REMARK                         _______ _______ _______ _____ _____    ______ ____
ROOT
ATOM      1  C   UNL     1     -59.030 -39.647 -62.305  0.00  0.00    +0.000 A 
ATOM      2  C   UNL     1     -58.163 -38.613 -62.232  0.00  0.00    +0.000 A 
ATOM      3  N   UNL     1     -56.941 -38.594 -62.876  0.00  0.00    +0.000 N 
ATOM      4  C   UNL     1     -56.419 -39.710 -63.549  0.00  0.00    +0.000 A 
ATOM      5  C   UNL     1     -55.148 -39.655 -64.154  0.00  0.00    +0.000 A 
ATOM      6 BR   UNL     1     -54.069 -38.098 -64.019  0.00  0.00    +0.000 Br
ATOM      7  C   UNL     1     -54.646 -40.740 -64.865  0.00  0.00    +0.000 A 
ATOM      8  C   UNL     1     -55.414 -41.895 -64.991  0.00  0.00    +0.000 A 
ATOM      9  C   UNL     1     -56.691 -41.964 -64.420  0.00  0.00    +0.000 A 
ATOM     10 CL   UNL     1     -57.517 -43.466 -64.653  0.00  0.00    +0.000 Cl
ATOM     11  C   UNL     1     -57.208 -40.861 -63.711  0.00  0.00    +0.000 A 
ATOM     12  C   UNL     1     -58.562 -40.851 -63.082  0.00  0.00    +0.000 A 
ATOM     13  O   UNL     1     -59.281 -41.840 -63.160  0.00  0.00    +0.000 OA
ATOM     14  H   UNL     1     -56.245 -37.963 -62.473  0.00  0.00    +0.000 HD
ENDROOT
BRANCH   1  16
ATOM     15  C   UNL     1     -61.584 -39.136 -62.381  0.00  0.00    +0.000 C 
ATOM     16  C   UNL     1     -60.381 -39.674 -61.637  0.00  0.00    +0.000 C 
ATOM     17  O   UNL     1     -60.533 -40.122 -60.504  0.00  0.00    +0.000 OA
ENDBRANCH   1  16
BRANCH   2  18
ATOM     18  S   UNL     1     -58.467 -37.193 -61.129  0.00  0.00    +0.000 S 
ATOM     19  O   UNL     1     -58.094 -37.723 -59.770  0.00  0.00    +0.000 OA
BRANCH  18  20
ATOM     20  C   UNL     1     -57.084 -36.115 -61.648  0.00  0.00    +0.000 C 
BRANCH  20  21
ATOM     21  C   UNL     1     -57.554 -34.788 -62.146  0.00  0.00    +0.000 A 
ATOM     22  C   UNL     1     -58.762 -34.432 -62.802  0.00  0.00    +0.000 A 
ATOM     23  C   UNL     1     -58.651 -33.081 -63.023  0.00  0.00    +0.000 A 
ATOM     24  C   UNL     1     -59.489 -32.071 -63.694  0.00  0.00    +0.000 C 
ATOM     25  O   UNL     1     -57.481 -32.639 -62.493  0.00  0.00    +0.000 OA
ATOM     26  N   UNL     1     -56.794 -33.702 -61.936  0.00  0.00    +0.000 NA
ENDBRANCH  20  21
ENDBRANCH  18  20
ENDBRANCH   2  18
TORSDOF 4
