REMARK VINA RESULT:    -6.047     12.351     14.436
REMARK INTER + INTRA:          -8.813
REMARK INTER:                  -7.797
REMARK INTRA:                  -1.016
REMARK UNBOUND:                -0.998
REMARK  Name = 
REMARK  6 active torsions:
REMARK  status: ('A' for Active; 'I' for Inactive)
REMARK    1  A    between atoms: C_1  and  C_2
REMARK    2  A    between atoms: C_4  and  C_5
REMARK    3  A    between atoms: C_5  and  S_6
REMARK    4  A    between atoms: S_6  and  C_8
REMARK    5  A    between atoms: C_20  and  C_21
REMARK    6  A    between atoms: C_21  and  C_23
REMARK                            x       y       z     vdW  Elec       q    Type
REMARK                         _______ _______ _______ _____ _____    ______ ____
ROOT
ATOM      1  C   UNL     1     -55.005 -41.737 -77.229  0.00  0.00    +0.000 A 
ATOM      2  N   UNL     1     -55.584 -42.779 -77.981  0.00  0.00    +0.000 N 
ATOM      3  C   UNL     1     -54.935 -43.279 -79.143  0.00  0.00    +0.000 A 
ATOM      4  C   UNL     1     -55.230 -44.535 -79.706  0.00  0.00    +0.000 A 
ATOM      5 BR   UNL     1     -56.406 -45.745 -78.839  0.00  0.00    +0.000 Br
ATOM      6  C   UNL     1     -54.648 -44.943 -80.914  0.00  0.00    +0.000 A 
ATOM      7  C   UNL     1     -53.735 -44.102 -81.561  0.00  0.00    +0.000 A 
ATOM      8  C   UNL     1     -53.425 -42.854 -81.021  0.00  0.00    +0.000 A 
ATOM      9 CL   UNL     1     -52.235 -41.923 -81.857  0.00  0.00    +0.000 Cl
ATOM     10  C   UNL     1     -54.043 -42.442 -79.830  0.00  0.00    +0.000 A 
ATOM     11  C   UNL     1     -53.843 -41.108 -79.230  0.00  0.00    +0.000 A 
ATOM     12  O   UNL     1     -53.605 -40.122 -79.916  0.00  0.00    +0.000 OA
ATOM     13  C   UNL     1     -54.020 -40.971 -77.747  0.00  0.00    +0.000 A 
ATOM     14  H   UNL     1     -55.987 -43.513 -77.382  0.00  0.00    +0.000 HD
ENDROOT
BRANCH   1  15
ATOM     15  S   UNL     1     -55.388 -41.857 -75.462  0.00  0.00    +0.000 S 
ATOM     16  O   UNL     1     -55.150 -43.305 -75.130  0.00  0.00    +0.000 OA
BRANCH  15  17
ATOM     17  C   UNL     1     -57.154 -41.523 -75.200  0.00  0.00    +0.000 C 
BRANCH  17  21
ATOM     18  C   UNL     1     -60.162 -40.361 -79.178  0.00  0.00    +0.000 C 
ATOM     19  C   UNL     1     -59.340 -40.899 -78.078  0.00  0.00    +0.000 A 
ATOM     20  C   UNL     1     -58.489 -40.350 -77.149  0.00  0.00    +0.000 A 
ATOM     21  C   UNL     1     -58.110 -41.435 -76.328  0.00  0.00    +0.000 A 
ATOM     22  N   UNL     1     -58.648 -42.580 -76.783  0.00  0.00    +0.000 NA
ATOM     23  O   UNL     1     -59.417 -42.239 -77.876  0.00  0.00    +0.000 OA
ENDBRANCH  17  21
ENDBRANCH  15  17
ENDBRANCH   1  15
BRANCH  13  24
ATOM     24  C   UNL     1     -52.965 -40.146 -77.092  0.00  0.00    +0.000 C 
ATOM     25  O   UNL     1     -53.011 -38.929 -77.141  0.00  0.00    +0.000 OA
BRANCH  24  26
ATOM     26  C   UNL     1     -51.892 -40.827 -76.344  0.00  0.00    +0.000 C 
ATOM     27  C   UNL     1     -50.632 -40.073 -76.004  0.00  0.00    +0.000 C 
ATOM     28  C   UNL     1     -50.583 -41.186 -77.006  0.00  0.00    +0.000 C 
ENDBRANCH  24  26
ENDBRANCH  13  24
TORSDOF 5
