REMARK  Name = 
REMARK  6 active torsions:
REMARK  status: ('A' for Active; 'I' for Inactive)
REMARK    1  A    between atoms: C_1  and  C_2
REMARK    2  A    between atoms: C_2  and  C_4
REMARK    3  A    between atoms: C_5  and  S_6
REMARK    4  A    between atoms: S_6  and  C_8
REMARK    5  A    between atoms: C_8  and  C_9
REMARK    6  A    between atoms: C_11  and  C_12
REMARK                            x       y       z     vdW  Elec       q    Type
REMARK                         _______ _______ _______ _____ _____    ______ ____
ROOT
ATOM      1  C   UNL     1       3.166  -0.444  -1.194  0.00  0.00    +0.000 A 
ATOM      2  C   UNL     1       2.804  -0.148  -2.467  0.00  0.00    +0.000 A 
ATOM      3  N   UNL     1       3.479  -0.628  -3.575  0.00  0.00    +0.000 N 
ATOM      4  C   UNL     1       4.692  -1.336  -3.483  0.00  0.00    +0.000 A 
ATOM      5  C   UNL     1       5.382  -1.747  -4.635  0.00  0.00    +0.000 A 
ATOM      6 BR   UNL     1       4.761  -1.270  -6.367  0.00  0.00    +0.000 Br
ATOM      7  C   UNL     1       6.549  -2.507  -4.546  0.00  0.00    +0.000 A 
ATOM      8  C   UNL     1       7.037  -2.873  -3.294  0.00  0.00    +0.000 A 
ATOM      9  C   UNL     1       6.366  -2.485  -2.133  0.00  0.00    +0.000 A 
ATOM     10 CL   UNL     1       7.105  -3.004  -0.657  0.00  0.00    +0.000 Cl
ATOM     11  C   UNL     1       5.181  -1.725  -2.226  0.00  0.00    +0.000 A 
ATOM     12  C   UNL     1       4.413  -1.277  -1.037  0.00  0.00    +0.000 A 
ATOM     13  O   UNL     1       4.822  -1.555   0.088  0.00  0.00    +0.000 OA
ATOM     14  H   UNL     1       3.317  -0.133  -4.451  0.00  0.00    +0.000 HD
ENDROOT
BRANCH   1  16
ATOM     15  C   UNL     1       2.640  -0.740   1.339  0.00  0.00    +0.000 C 
ATOM     16  C   UNL     1       2.443   0.016   0.044  0.00  0.00    +0.000 C 
ATOM     17  O   UNL     1       1.680   0.988   0.027  0.00  0.00    +0.000 OA
ENDBRANCH   1  16
BRANCH   2  18
ATOM     18  S   UNL     1       1.469   1.051  -2.812  0.00  0.00    +0.000 S 
ATOM     19  O   UNL     1       2.149   2.122  -3.622  0.00  0.00    +0.000 OA
BRANCH  18  20
ATOM     20  C   UNL     1       0.469   0.083  -3.997  0.00  0.00    +0.000 C 
BRANCH  20  21
ATOM     21  C   UNL     1      -0.771   0.800  -4.434  0.00  0.00    +0.000 A 
ATOM     22  C   UNL     1      -0.983   2.172  -4.735  0.00  0.00    +0.000 A 
ATOM     23  C   UNL     1      -2.304   2.253  -5.096  0.00  0.00    +0.000 A 
ATOM     24  C   UNL     1      -3.210   3.352  -5.483  0.00  0.00    +0.000 C 
ATOM     25  O   UNL     1      -2.848   1.007  -5.061  0.00  0.00    +0.000 OA
ATOM     26  N   UNL     1      -1.891   0.095  -4.656  0.00  0.00    +0.000 NA
ENDBRANCH  20  21
ENDBRANCH  18  20
ENDBRANCH   2  18
TORSDOF 4
