REMARK VINA RESULT:    -6.510      2.453      3.415
REMARK INTER + INTRA:          -9.320
REMARK INTER:                  -8.149
REMARK INTRA:                  -1.171
REMARK UNBOUND:                -0.908
REMARK  Name = 
REMARK  6 active torsions:
REMARK  status: ('A' for Active; 'I' for Inactive)
REMARK    1  A    between atoms: C_1  and  C_2
REMARK    2  A    between atoms: C_4  and  C_5
REMARK    3  A    between atoms: C_5  and  S_6
REMARK    4  A    between atoms: S_6  and  C_8
REMARK    5  A    between atoms: C_20  and  C_21
REMARK    6  A    between atoms: C_21  and  C_23
REMARK                            x       y       z     vdW  Elec       q    Type
REMARK                         _______ _______ _______ _____ _____    ______ ____
ROOT
ATOM      1  C   UNL     1     -55.285 -43.203 -78.037  0.00  0.00    +0.000 A 
ATOM      2  N   UNL     1     -54.847 -44.403 -77.444  0.00  0.00    +0.000 N 
ATOM      3  C   UNL     1     -53.893 -44.383 -76.389  0.00  0.00    +0.000 A 
ATOM      4  C   UNL     1     -53.704 -45.461 -75.504  0.00  0.00    +0.000 A 
ATOM      5 BR   UNL     1     -54.849 -46.973 -75.544  0.00  0.00    +0.000 Br
ATOM      6  C   UNL     1     -52.678 -45.444 -74.549  0.00  0.00    +0.000 A 
ATOM      7  C   UNL     1     -51.842 -44.325 -74.451  0.00  0.00    +0.000 A 
ATOM      8  C   UNL     1     -52.012 -43.244 -75.316  0.00  0.00    +0.000 A 
ATOM      9 CL   UNL     1     -50.977 -41.885 -75.066  0.00  0.00    +0.000 Cl
ATOM     10  C   UNL     1     -53.019 -43.289 -76.292  0.00  0.00    +0.000 A 
ATOM     11  C   UNL     1     -53.219 -42.233 -77.303  0.00  0.00    +0.000 A 
ATOM     12  O   UNL     1     -52.286 -41.560 -77.725  0.00  0.00    +0.000 OA
ATOM     13  C   UNL     1     -54.596 -42.053 -77.870  0.00  0.00    +0.000 A 
ATOM     14  H   UNL     1     -55.619 -45.067 -77.291  0.00  0.00    +0.000 HD
ENDROOT
BRANCH   1  15
ATOM     15  S   UNL     1     -57.002 -43.295 -78.608  0.00  0.00    +0.000 S 
ATOM     16  O   UNL     1     -56.975 -42.648 -79.966  0.00  0.00    +0.000 OA
BRANCH  15  17
ATOM     17  C   UNL     1     -58.053 -42.269 -77.538  0.00  0.00    +0.000 C 
BRANCH  17  21
ATOM     18  C   UNL     1     -58.043 -41.506 -72.475  0.00  0.00    +0.000 C 
ATOM     19  C   UNL     1     -57.981 -41.923 -73.888  0.00  0.00    +0.000 A 
ATOM     20  C   UNL     1     -58.320 -41.338 -75.085  0.00  0.00    +0.000 A 
ATOM     21  C   UNL     1     -57.904 -42.267 -76.065  0.00  0.00    +0.000 A 
ATOM     22  N   UNL     1     -57.410 -43.375 -75.484  0.00  0.00    +0.000 NA
ATOM     23  O   UNL     1     -57.459 -43.154 -74.124  0.00  0.00    +0.000 OA
ENDBRANCH  17  21
ENDBRANCH  15  17
ENDBRANCH   1  15
BRANCH  13  24
ATOM     24  C   UNL     1     -55.016 -40.627 -77.982  0.00  0.00    +0.000 C 
ATOM     25  O   UNL     1     -55.330 -39.994 -76.990  0.00  0.00    +0.000 OA
BRANCH  24  26
ATOM     26  C   UNL     1     -54.998 -39.983 -79.309  0.00  0.00    +0.000 C 
ATOM     27  C   UNL     1     -53.951 -40.388 -80.315  0.00  0.00    +0.000 C 
ATOM     28  C   UNL     1     -53.899 -39.023 -79.699  0.00  0.00    +0.000 C 
ENDBRANCH  24  26
ENDBRANCH  13  24
TORSDOF 5
