REMARK VINA RESULT:    -7.259      0.000      0.000
REMARK INTER + INTRA:          -9.697
REMARK INTER:                  -8.956
REMARK INTRA:                  -0.741
REMARK UNBOUND:                -0.741
REMARK  Name = 
REMARK  5 active torsions:
REMARK  status: ('A' for Active; 'I' for Inactive)
REMARK    1  A    between atoms: C_1  and  C_2
REMARK    2  A    between atoms: C_2  and  C_4
REMARK    3  A    between atoms: C_5  and  S_6
REMARK    4  A    between atoms: S_6  and  C_8
REMARK    5  A    between atoms: C_8  and  C_9
REMARK                            x       y       z     vdW  Elec       q    Type
REMARK                         _______ _______ _______ _____ _____    ______ ____
ROOT
ATOM      1  C   UNL     1     -56.161 -42.856 -76.749  0.00  0.00    +0.000 A 
ATOM      2  C   UNL     1     -55.171 -43.682 -76.346  0.00  0.00    +0.000 A 
ATOM      3  N   UNL     1     -55.167 -45.046 -76.582  0.00  0.00    +0.000 N 
ATOM      4  C   UNL     1     -56.320 -45.714 -77.028  0.00  0.00    +0.000 A 
ATOM      5  C   UNL     1     -56.379 -47.119 -77.047  0.00  0.00    +0.000 A 
ATOM      6 BR   UNL     1     -54.925 -48.166 -76.416  0.00  0.00    +0.000 Br
ATOM      7  C   UNL     1     -57.512 -47.776 -77.515  0.00  0.00    +0.000 A 
ATOM      8  C   UNL     1     -58.598 -47.035 -77.977  0.00  0.00    +0.000 A 
ATOM      9  C   UNL     1     -58.548 -45.636 -77.994  0.00  0.00    +0.000 A 
ATOM     10 CL   UNL     1     -59.981 -44.832 -78.527  0.00  0.00    +0.000 Cl
ATOM     11  C   UNL     1     -57.395 -44.972 -77.546  0.00  0.00    +0.000 A 
ATOM     12  C   UNL     1     -57.223 -43.493 -77.592  0.00  0.00    +0.000 A 
ATOM     13  O   UNL     1     -57.910 -42.799 -78.334  0.00  0.00    +0.000 OA
ATOM     14  H   UNL     1     -54.596 -45.581 -75.926  0.00  0.00    +0.000 HD
ENDROOT
BRANCH   1  16
ATOM     15  C   UNL     1     -55.652 -40.378 -77.362  0.00  0.00    +0.000 C 
ATOM     16  C   UNL     1     -56.251 -41.394 -76.418  0.00  0.00    +0.000 C 
ATOM     17  O   UNL     1     -56.815 -41.002 -75.390  0.00  0.00    +0.000 OA
ENDBRANCH   1  16
BRANCH   2  18
ATOM     18  S   UNL     1     -53.823 -43.080 -75.298  0.00  0.00    +0.000 S 
ATOM     19  O   UNL     1     -53.130 -44.339 -74.855  0.00  0.00    +0.000 OA
BRANCH  18  20
ATOM     20  C   UNL     1     -52.739 -42.341 -76.576  0.00  0.00    +0.000 C 
BRANCH  20  21
ATOM     21  C   UNL     1     -51.760 -41.268 -76.162  0.00  0.00    +0.000 A 
ATOM     22  C   UNL     1     -50.546 -41.543 -75.523  0.00  0.00    +0.000 A 
ATOM     23  C   UNL     1     -49.648 -40.514 -75.228  0.00  0.00    +0.000 A 
ATOM     24  C   UNL     1     -49.936 -39.200 -75.590  0.00  0.00    +0.000 A 
ATOM     25  C   UNL     1     -51.126 -38.914 -76.253  0.00  0.00    +0.000 A 
ATOM     26  C   UNL     1     -52.027 -39.940 -76.541  0.00  0.00    +0.000 A 
ENDBRANCH  20  21
ENDBRANCH  18  20
ENDBRANCH   2  18
TORSDOF 4
