REMARK VINA RESULT:    -7.108      2.863      4.157
REMARK INTER + INTRA:          -9.979
REMARK INTER:                  -8.845
REMARK INTRA:                  -1.134
REMARK UNBOUND:                -0.794
REMARK  Name = 
REMARK  8 active torsions:
REMARK  status: ('A' for Active; 'I' for Inactive)
REMARK    1  A    between atoms: C_1  and  C_2
REMARK    2  A    between atoms: C_4  and  C_5
REMARK    3  A    between atoms: C_5  and  S_6
REMARK    4  A    between atoms: S_6  and  C_8
REMARK    5  A    between atoms: C_20  and  C_21
REMARK    6  A    between atoms: C_21  and  C_23
REMARK    7  A    between atoms: C_23  and  C_24
REMARK    8  A    between atoms: C_23  and  C_25
REMARK                            x       y       z     vdW  Elec       q    Type
REMARK                         _______ _______ _______ _____ _____    ______ ____
ROOT
ATOM      1  C   UNL     1     -55.853 -42.698 -77.757  0.00  0.00    +0.000 A 
ATOM      2  N   UNL     1     -55.170 -41.490 -77.646  0.00  0.00    +0.000 N 
ATOM      3  C   UNL     1     -53.861 -41.427 -77.131  0.00  0.00    +0.000 A 
ATOM      4  C   UNL     1     -53.007 -40.337 -77.385  0.00  0.00    +0.000 A 
ATOM      5 BR   UNL     1     -53.518 -38.956 -78.581  0.00  0.00    +0.000 Br
ATOM      6  C   UNL     1     -51.742 -40.262 -76.797  0.00  0.00    +0.000 A 
ATOM      7  C   UNL     1     -51.309 -41.278 -75.950  0.00  0.00    +0.000 A 
ATOM      8  C   UNL     1     -52.143 -42.380 -75.688  0.00  0.00    +0.000 A 
ATOM      9 CL   UNL     1     -51.470 -43.610 -74.681  0.00  0.00    +0.000 Cl
ATOM     10  C   UNL     1     -53.423 -42.452 -76.276  0.00  0.00    +0.000 A 
ATOM     11  C   UNL     1     -54.390 -43.554 -76.038  0.00  0.00    +0.000 A 
ATOM     12  O   UNL     1     -54.317 -44.226 -75.014  0.00  0.00    +0.000 OA
ATOM     13  C   UNL     1     -55.477 -43.808 -77.079  0.00  0.00    +0.000 A 
ATOM     14  H   UNL     1     -55.396 -40.814 -78.388  0.00  0.00    +0.000 HD
ENDROOT
BRANCH   1  15
ATOM     15  S   UNL     1     -57.137 -42.626 -79.062  0.00  0.00    +0.000 S 
ATOM     16  O   UNL     1     -56.694 -41.488 -79.941  0.00  0.00    +0.000 OA
BRANCH  15  17
ATOM     17  C   UNL     1     -58.631 -42.106 -78.153  0.00  0.00    +0.000 C 
BRANCH  17  21
ATOM     18  C   UNL     1     -58.127 -40.869 -73.151  0.00  0.00    +0.000 C 
ATOM     19  C   UNL     1     -58.170 -41.045 -74.619  0.00  0.00    +0.000 A 
ATOM     20  C   UNL     1     -58.569 -42.053 -75.468  0.00  0.00    +0.000 A 
ATOM     21  C   UNL     1     -58.364 -41.535 -76.780  0.00  0.00    +0.000 A 
ATOM     22  N   UNL     1     -57.851 -40.295 -76.705  0.00  0.00    +0.000 NA
ATOM     23  O   UNL     1     -57.736 -39.994 -75.361  0.00  0.00    +0.000 OA
ENDBRANCH  17  21
ENDBRANCH  15  17
ENDBRANCH   1  15
BRANCH  13  24
ATOM     24  C   UNL     1     -55.946 -45.237 -77.237  0.00  0.00    +0.000 C 
ATOM     25  O   UNL     1     -57.130 -45.522 -77.067  0.00  0.00    +0.000 OA
BRANCH  24  26
ATOM     26  C   UNL     1     -54.943 -46.350 -77.543  0.00  0.00    +0.000 C 
ATOM     27  C   UNL     1     -54.925 -47.413 -76.448  0.00  0.00    +0.000 C 
ATOM     28  C   UNL     1     -55.204 -46.996 -78.907  0.00  0.00    +0.000 C 
ENDBRANCH  24  26
ENDBRANCH  13  24
TORSDOF 5
