REMARK VINA RESULT:    -6.222      3.289      5.420
REMARK INTER + INTRA:          -8.942
REMARK INTER:                  -8.259
REMARK INTRA:                  -0.683
REMARK UNBOUND:                -0.901
REMARK  Name = 
REMARK  6 active torsions:
REMARK  status: ('A' for Active; 'I' for Inactive)
REMARK    1  A    between atoms: C_1  and  C_2
REMARK    2  A    between atoms: C_4  and  C_5
REMARK    3  A    between atoms: C_5  and  S_6
REMARK    4  A    between atoms: S_6  and  C_8
REMARK    5  A    between atoms: C_20  and  C_21
REMARK    6  A    between atoms: C_21  and  C_23
REMARK                            x       y       z     vdW  Elec       q    Type
REMARK                         _______ _______ _______ _____ _____    ______ ____
ROOT
ATOM      1  C   UNL     1     -57.278 -41.443 -63.241  0.00  0.00    +0.000 A 
ATOM      2  N   UNL     1     -56.932 -40.723 -62.081  0.00  0.00    +0.000 N 
ATOM      3  C   UNL     1     -56.127 -39.554 -62.168  0.00  0.00    +0.000 A 
ATOM      4  C   UNL     1     -56.066 -38.586 -61.148  0.00  0.00    +0.000 A 
ATOM      5 BR   UNL     1     -57.207 -38.685 -59.635  0.00  0.00    +0.000 Br
ATOM      6  C   UNL     1     -55.177 -37.505 -61.226  0.00  0.00    +0.000 A 
ATOM      7  C   UNL     1     -54.353 -37.366 -62.349  0.00  0.00    +0.000 A 
ATOM      8  C   UNL     1     -54.398 -38.312 -63.374  0.00  0.00    +0.000 A 
ATOM      9 CL   UNL     1     -53.396 -38.011 -64.748  0.00  0.00    +0.000 Cl
ATOM     10  C   UNL     1     -55.266 -39.409 -63.267  0.00  0.00    +0.000 A 
ATOM     11  C   UNL     1     -55.321 -40.501 -64.257  0.00  0.00    +0.000 A 
ATOM     12  O   UNL     1     -54.336 -40.836 -64.904  0.00  0.00    +0.000 OA
ATOM     13  C   UNL     1     -56.609 -41.257 -64.400  0.00  0.00    +0.000 A 
ATOM     14  H   UNL     1     -57.722 -40.635 -61.428  0.00  0.00    +0.000 HD
ENDROOT
BRANCH   1  15
ATOM     15  S   UNL     1     -58.904 -42.232 -63.112  0.00  0.00    +0.000 S 
ATOM     16  O   UNL     1     -59.876 -41.085 -63.163  0.00  0.00    +0.000 OA
BRANCH  15  17
ATOM     17  C   UNL     1     -59.071 -43.014 -61.480  0.00  0.00    +0.000 C 
BRANCH  17  21
ATOM     18  C   UNL     1     -62.339 -46.866 -60.642  0.00  0.00    +0.000 C 
ATOM     19  C   UNL     1     -61.531 -45.639 -60.766  0.00  0.00    +0.000 A 
ATOM     20  C   UNL     1     -60.308 -45.337 -61.317  0.00  0.00    +0.000 A 
ATOM     21  C   UNL     1     -60.185 -43.939 -61.165  0.00  0.00    +0.000 A 
ATOM     22  N   UNL     1     -61.241 -43.442 -60.498  0.00  0.00    +0.000 NA
ATOM     23  O   UNL     1     -62.080 -44.509 -60.252  0.00  0.00    +0.000 OA
ENDBRANCH  17  21
ENDBRANCH  15  17
ENDBRANCH   1  15
BRANCH  13  24
ATOM     24  C   UNL     1     -57.000 -41.513 -65.816  0.00  0.00    +0.000 C 
ATOM     25  O   UNL     1     -57.394 -40.603 -66.524  0.00  0.00    +0.000 OA
BRANCH  24  26
ATOM     26  C   UNL     1     -56.855 -42.878 -66.358  0.00  0.00    +0.000 C 
ATOM     27  C   UNL     1     -57.234 -43.150 -67.791  0.00  0.00    +0.000 C 
ATOM     28  C   UNL     1     -58.064 -43.723 -66.683  0.00  0.00    +0.000 C 
ENDBRANCH  24  26
ENDBRANCH  13  24
TORSDOF 5
