REMARK VINA RESULT:    -6.471     10.624     13.149
REMARK INTER + INTRA:          -9.256
REMARK INTER:                  -8.048
REMARK INTRA:                  -1.209
REMARK UNBOUND:                -0.894
REMARK  Name = 
REMARK  8 active torsions:
REMARK  status: ('A' for Active; 'I' for Inactive)
REMARK    1  A    between atoms: C_1  and  C_2
REMARK    2  A    between atoms: C_4  and  C_5
REMARK    3  A    between atoms: C_5  and  S_6
REMARK    4  A    between atoms: S_6  and  C_8
REMARK    5  A    between atoms: C_20  and  C_21
REMARK    6  A    between atoms: C_21  and  C_23
REMARK    7  A    between atoms: C_23  and  C_24
REMARK    8  A    between atoms: C_23  and  C_25
REMARK                            x       y       z     vdW  Elec       q    Type
REMARK                         _______ _______ _______ _____ _____    ______ ____
ROOT
ATOM      1  C   UNL     1     -57.610 -40.663 -63.339  0.00  0.00    +0.000 A 
ATOM      2  N   UNL     1     -57.145 -39.418 -62.924  0.00  0.00    +0.000 N 
ATOM      3  C   UNL     1     -55.984 -38.838 -63.477  0.00  0.00    +0.000 A 
ATOM      4  C   UNL     1     -55.714 -37.459 -63.373  0.00  0.00    +0.000 A 
ATOM      5 CL   UNL     1     -56.881 -36.380 -62.696  0.00  0.00    +0.000 Cl
ATOM      6  C   UNL     1     -54.511 -36.925 -63.835  0.00  0.00    +0.000 A 
ATOM      7  C   UNL     1     -53.560 -37.768 -64.415  0.00  0.00    +0.000 A 
ATOM      8  C   UNL     1     -53.817 -39.139 -64.542  0.00  0.00    +0.000 A 
ATOM      9 CL   UNL     1     -52.596 -40.065 -65.335  0.00  0.00    +0.000 Cl
ATOM     10  C   UNL     1     -55.022 -39.673 -64.062  0.00  0.00    +0.000 A 
ATOM     11  C   UNL     1     -55.367 -41.117 -64.070  0.00  0.00    +0.000 A 
ATOM     12  O   UNL     1     -54.467 -41.947 -64.029  0.00  0.00    +0.000 OA
ATOM     13  C   UNL     1     -56.832 -41.535 -64.040  0.00  0.00    +0.000 A 
ATOM     14  H   UNL     1     -57.897 -38.757 -62.685  0.00  0.00    +0.000 HD
ENDROOT
BRANCH   1  15
ATOM     15  S   UNL     1     -59.416 -40.832 -63.037  0.00  0.00    +0.000 S 
ATOM     16  O   UNL     1     -59.804 -39.502 -62.451  0.00  0.00    +0.000 OA
BRANCH  15  17
ATOM     17  C   UNL     1     -59.488 -42.074 -61.683  0.00  0.00    +0.000 C 
BRANCH  17  21
ATOM     18  C   UNL     1     -55.369 -42.317 -58.567  0.00  0.00    +0.000 C 
ATOM     19  C   UNL     1     -56.602 -42.080 -59.348  0.00  0.00    +0.000 A 
ATOM     20  C   UNL     1     -57.133 -42.588 -60.511  0.00  0.00    +0.000 A 
ATOM     21  C   UNL     1     -58.390 -41.937 -60.658  0.00  0.00    +0.000 A 
ATOM     22  N   UNL     1     -58.575 -41.065 -59.652  0.00  0.00    +0.000 NA
ATOM     23  O   UNL     1     -57.464 -41.163 -58.837  0.00  0.00    +0.000 OA
ENDBRANCH  17  21
ENDBRANCH  15  17
ENDBRANCH   1  15
BRANCH  13  24
ATOM     24  C   UNL     1     -57.144 -42.809 -64.799  0.00  0.00    +0.000 C 
ATOM     25  O   UNL     1     -57.385 -43.852 -64.177  0.00  0.00    +0.000 OA
BRANCH  24  26
ATOM     26  C   UNL     1     -57.027 -42.901 -66.309  0.00  0.00    +0.000 C 
ATOM     27  C   UNL     1     -57.896 -44.034 -66.822  0.00  0.00    +0.000 C 
ATOM     28  C   UNL     1     -57.314 -41.562 -66.978  0.00  0.00    +0.000 C 
ENDBRANCH  24  26
ENDBRANCH  13  24
TORSDOF 5
