REMARK VINA RESULT:    -5.718      3.369      6.049
REMARK INTER + INTRA:          -7.699
REMARK INTER:                  -6.932
REMARK INTRA:                  -0.767
REMARK UNBOUND:                -0.644
REMARK  Name = 
REMARK  6 active torsions:
REMARK  status: ('A' for Active; 'I' for Inactive)
REMARK    1  A    between atoms: C_1  and  C_2
REMARK    2  A    between atoms: C_2  and  C_4
REMARK    3  A    between atoms: C_5  and  S_6
REMARK    4  A    between atoms: S_6  and  C_8
REMARK    5  A    between atoms: C_8  and  C_9
REMARK    6  A    between atoms: C_11  and  C_12
REMARK                            x       y       z     vdW  Elec       q    Type
REMARK                         _______ _______ _______ _____ _____    ______ ____
ROOT
ATOM      1  C   UNL     1     -55.753 -42.890 -79.500  0.00  0.00    +0.000 A 
ATOM      2  C   UNL     1     -55.325 -43.784 -78.580  0.00  0.00    +0.000 A 
ATOM      3  N   UNL     1     -54.440 -43.468 -77.569  0.00  0.00    +0.000 N 
ATOM      4  C   UNL     1     -53.782 -42.229 -77.491  0.00  0.00    +0.000 A 
ATOM      5  C   UNL     1     -52.867 -41.961 -76.455  0.00  0.00    +0.000 A 
ATOM      6 BR   UNL     1     -52.440 -43.282 -75.159  0.00  0.00    +0.000 Br
ATOM      7  C   UNL     1     -52.246 -40.721 -76.346  0.00  0.00    +0.000 A 
ATOM      8  C   UNL     1     -52.543 -39.721 -77.273  0.00  0.00    +0.000 A 
ATOM      9  C   UNL     1     -53.465 -39.955 -78.300  0.00  0.00    +0.000 A 
ATOM     10 CL   UNL     1     -53.709 -38.626 -79.381  0.00  0.00    +0.000 Cl
ATOM     11  C   UNL     1     -54.110 -41.204 -78.395  0.00  0.00    +0.000 A 
ATOM     12  C   UNL     1     -55.130 -41.519 -79.433  0.00  0.00    +0.000 A 
ATOM     13  O   UNL     1     -55.438 -40.672 -80.260  0.00  0.00    +0.000 OA
ATOM     14  H   UNL     1     -53.932 -44.258 -77.165  0.00  0.00    +0.000 HD
ENDROOT
BRANCH   1  16
ATOM     15  C   UNL     1     -56.262 -43.598 -81.955  0.00  0.00    +0.000 C 
ATOM     16  C   UNL     1     -56.757 -43.191 -80.584  0.00  0.00    +0.000 C 
ATOM     17  O   UNL     1     -57.969 -43.100 -80.386  0.00  0.00    +0.000 OA
ENDBRANCH   1  16
BRANCH   2  18
ATOM     18  S   UNL     1     -55.755 -45.553 -78.699  0.00  0.00    +0.000 S 
ATOM     19  O   UNL     1     -54.708 -46.222 -77.848  0.00  0.00    +0.000 OA
BRANCH  18  20
ATOM     20  C   UNL     1     -57.288 -45.557 -77.700  0.00  0.00    +0.000 C 
BRANCH  20  21
ATOM     21  C   UNL     1     -57.302 -44.425 -76.728  0.00  0.00    +0.000 A 
ATOM     22  C   UNL     1     -58.168 -43.300 -76.676  0.00  0.00    +0.000 A 
ATOM     23  C   UNL     1     -57.758 -42.599 -75.568  0.00  0.00    +0.000 A 
ATOM     24  C   UNL     1     -58.181 -41.342 -74.923  0.00  0.00    +0.000 C 
ATOM     25  O   UNL     1     -56.729 -43.264 -74.979  0.00  0.00    +0.000 OA
ATOM     26  N   UNL     1     -56.446 -44.413 -75.697  0.00  0.00    +0.000 NA
ENDBRANCH  20  21
ENDBRANCH  18  20
ENDBRANCH   2  18
TORSDOF 4
