REMARK VINA RESULT:    -7.141      2.825      4.032
REMARK INTER + INTRA:         -10.102
REMARK INTER:                  -9.023
REMARK INTRA:                  -1.079
REMARK UNBOUND:                -0.874
REMARK  Name = 
REMARK  8 active torsions:
REMARK  status: ('A' for Active; 'I' for Inactive)
REMARK    1  A    between atoms: C_1  and  C_2
REMARK    2  A    between atoms: C_4  and  C_5
REMARK    3  A    between atoms: C_5  and  S_6
REMARK    4  A    between atoms: S_6  and  C_8
REMARK    5  A    between atoms: C_20  and  C_21
REMARK    6  A    between atoms: C_21  and  C_23
REMARK    7  A    between atoms: C_23  and  C_24
REMARK    8  A    between atoms: C_23  and  C_25
REMARK                            x       y       z     vdW  Elec       q    Type
REMARK                         _______ _______ _______ _____ _____    ______ ____
ROOT
ATOM      1  C   UNL     1     -55.661 -42.288 -77.336  0.00  0.00    +0.000 A 
ATOM      2  N   UNL     1     -54.948 -41.099 -77.215  0.00  0.00    +0.000 N 
ATOM      3  C   UNL     1     -53.604 -41.083 -76.797  0.00  0.00    +0.000 A 
ATOM      4  C   UNL     1     -52.751 -39.994 -77.058  0.00  0.00    +0.000 A 
ATOM      5 BR   UNL     1     -53.323 -38.544 -78.138  0.00  0.00    +0.000 Br
ATOM      6  C   UNL     1     -51.443 -39.970 -76.564  0.00  0.00    +0.000 A 
ATOM      7  C   UNL     1     -50.968 -41.036 -75.806  0.00  0.00    +0.000 A 
ATOM      8  C   UNL     1     -51.801 -42.138 -75.540  0.00  0.00    +0.000 A 
ATOM      9 CL   UNL     1     -51.078 -43.430 -74.652  0.00  0.00    +0.000 Cl
ATOM     10  C   UNL     1     -53.123 -42.159 -76.033  0.00  0.00    +0.000 A 
ATOM     11  C   UNL     1     -54.090 -43.258 -75.780  0.00  0.00    +0.000 A 
ATOM     12  O   UNL     1     -53.953 -43.985 -74.801  0.00  0.00    +0.000 OA
ATOM     13  C   UNL     1     -55.256 -43.439 -76.748  0.00  0.00    +0.000 A 
ATOM     14  H   UNL     1     -55.217 -40.380 -77.902  0.00  0.00    +0.000 HD
ENDROOT
BRANCH   1  15
ATOM     15  S   UNL     1     -57.037 -42.128 -78.536  0.00  0.00    +0.000 S 
ATOM     16  O   UNL     1     -56.432 -41.355 -79.676  0.00  0.00    +0.000 OA
BRANCH  15  17
ATOM     17  C   UNL     1     -58.224 -41.045 -77.669  0.00  0.00    +0.000 C 
BRANCH  17  21
ATOM     18  C   UNL     1     -58.005 -41.136 -72.498  0.00  0.00    +0.000 C 
ATOM     19  C   UNL     1     -58.190 -41.276 -73.959  0.00  0.00    +0.000 A 
ATOM     20  C   UNL     1     -57.840 -40.530 -75.061  0.00  0.00    +0.000 A 
ATOM     21  C   UNL     1     -58.313 -41.277 -76.179  0.00  0.00    +0.000 A 
ATOM     22  N   UNL     1     -58.929 -42.393 -75.753  0.00  0.00    +0.000 NA
ATOM     23  O   UNL     1     -58.847 -42.389 -74.374  0.00  0.00    +0.000 OA
ENDBRANCH  17  21
ENDBRANCH  15  17
ENDBRANCH   1  15
BRANCH  13  24
ATOM     24  C   UNL     1     -55.763 -44.851 -76.945  0.00  0.00    +0.000 C 
ATOM     25  O   UNL     1     -56.944 -45.120 -76.731  0.00  0.00    +0.000 OA
BRANCH  24  26
ATOM     26  C   UNL     1     -54.799 -45.968 -77.346  0.00  0.00    +0.000 C 
ATOM     27  C   UNL     1     -54.726 -47.062 -76.283  0.00  0.00    +0.000 C 
ATOM     28  C   UNL     1     -55.159 -46.573 -78.706  0.00  0.00    +0.000 C 
ENDBRANCH  24  26
ENDBRANCH  13  24
TORSDOF 5
