REMARK  Name = 
REMARK  6 active torsions:
REMARK  status: ('A' for Active; 'I' for Inactive)
REMARK    1  A    between atoms: C_1  and  C_2
REMARK    2  A    between atoms: C_2  and  C_4
REMARK    3  A    between atoms: C_5  and  S_6
REMARK    4  A    between atoms: S_6  and  C_8
REMARK    5  A    between atoms: C_8  and  C_9
REMARK    6  A    between atoms: C_11  and  C_12
REMARK                            x       y       z     vdW  Elec       q    Type
REMARK                         _______ _______ _______ _____ _____    ______ ____
ROOT
ATOM      1  C   UNL     1       3.295   1.046  -0.680  0.00  0.00    +0.000 A 
ATOM      2  C   UNL     1       3.021   2.368  -0.620  0.00  0.00    +0.000 A 
ATOM      3  N   UNL     1       3.715   3.317  -1.351  0.00  0.00    +0.000 N 
ATOM      4  C   UNL     1       4.932   3.014  -1.988  0.00  0.00    +0.000 A 
ATOM      5  C   UNL     1       5.743   4.030  -2.523  0.00  0.00    +0.000 A 
ATOM      6 BR   UNL     1       5.261   5.858  -2.345  0.00  0.00    +0.000 Br
ATOM      7  C   UNL     1       6.930   3.722  -3.182  0.00  0.00    +0.000 A 
ATOM      8  C   UNL     1       7.317   2.390  -3.318  0.00  0.00    +0.000 A 
ATOM      9  C   UNL     1       6.509   1.361  -2.818  0.00  0.00    +0.000 A 
ATOM     10 CL   UNL     1       7.129  -0.242  -2.988  0.00  0.00    +0.000 Cl
ATOM     11  C   UNL     1       5.299   1.671  -2.177  0.00  0.00    +0.000 A 
ATOM     12  C   UNL     1       4.340   0.646  -1.684  0.00  0.00    +0.000 A 
ATOM     13  O   UNL     1       4.364  -0.499  -2.119  0.00  0.00    +0.000 OA
ATOM     14  H   UNL     1       3.680   4.257  -0.949  0.00  0.00    +0.000 HD
ENDROOT
BRANCH   1  16
ATOM     15  C   UNL     1       3.353  -1.337   0.378  0.00  0.00    +0.000 C 
ATOM     16  C   UNL     1       2.638  -0.017   0.155  0.00  0.00    +0.000 C 
ATOM     17  O   UNL     1       1.532   0.167   0.657  0.00  0.00    +0.000 OA
ENDBRANCH   1  16
BRANCH   2  18
ATOM     18  S   UNL     1       1.796   3.048   0.548  0.00  0.00    +0.000 S 
ATOM     19  O   UNL     1       2.588   4.065   1.324  0.00  0.00    +0.000 OA
BRANCH  18  20
ATOM     20  C   UNL     1       0.790   3.991  -0.664  0.00  0.00    +0.000 C 
BRANCH  20  21
ATOM     21  C   UNL     1      -0.323   4.788  -0.063  0.00  0.00    +0.000 A 
ATOM     22  C   UNL     1      -0.420   5.454   1.187  0.00  0.00    +0.000 A 
ATOM     23  C   UNL     1      -1.629   6.106   1.142  0.00  0.00    +0.000 A 
ATOM     24  C   UNL     1      -2.370   6.986   2.066  0.00  0.00    +0.000 C 
ATOM     25  O   UNL     1      -2.223   5.856  -0.053  0.00  0.00    +0.000 OA
ATOM     26  N   UNL     1      -1.410   5.037  -0.812  0.00  0.00    +0.000 NA
ENDBRANCH  20  21
ENDBRANCH  18  20
ENDBRANCH   2  18
TORSDOF 4
