MODEL 1
REMARK VINA RESULT:    -7.231      0.000      0.000
REMARK INTER + INTRA:         -10.302
REMARK INTER:                  -9.345
REMARK INTRA:                  -0.957
REMARK UNBOUND:                -0.957
REMARK  Name = 
REMARK  6 active torsions:
REMARK  status: ('A' for Active; 'I' for Inactive)
REMARK    1  A    between atoms: C_1  and  C_2
REMARK    2  A    between atoms: C_4  and  C_5
REMARK    3  A    between atoms: C_5  and  S_6
REMARK    4  A    between atoms: S_6  and  C_8
REMARK    5  A    between atoms: C_20  and  C_21
REMARK    6  A    between atoms: C_21  and  C_23
REMARK                            x       y       z     vdW  Elec       q    Type
REMARK                         _______ _______ _______ _____ _____    ______ ____
ROOT
ATOM      1  C   UNL     1     -55.503 -41.988 -63.177  0.00  0.00    +0.000 A 
ATOM      2  N   UNL     1     -54.724 -43.162 -63.158  0.00  0.00    +0.000 N 
ATOM      3  C   UNL     1     -53.333 -43.112 -63.447  0.00  0.00    +0.000 A 
ATOM      4  C   UNL     1     -52.435 -44.131 -63.077  0.00  0.00    +0.000 A 
ATOM      5 BR   UNL     1     -52.995 -45.583 -61.992  0.00  0.00    +0.000 Br
ATOM      6  C   UNL     1     -51.092 -44.094 -63.477  0.00  0.00    +0.000 A 
ATOM      7  C   UNL     1     -50.624 -43.014 -64.235  0.00  0.00    +0.000 A 
ATOM      8  C   UNL     1     -51.495 -41.992 -64.612  0.00  0.00    +0.000 A 
ATOM      9 CL   UNL     1     -50.805 -40.671 -65.484  0.00  0.00    +0.000 Cl
ATOM     10  C   UNL     1     -52.845 -42.058 -64.236  0.00  0.00    +0.000 A 
ATOM     11  C   UNL     1     -53.856 -41.070 -64.659  0.00  0.00    +0.000 A 
ATOM     12  O   UNL     1     -53.770 -40.476 -65.727  0.00  0.00    +0.000 OA
ATOM     13  C   UNL     1     -55.051 -40.864 -63.776  0.00  0.00    +0.000 A 
ATOM     14  H   UNL     1     -54.961 -43.773 -62.365  0.00  0.00    +0.000 HD
ENDROOT
BRANCH   1  15
ATOM     15  S   UNL     1     -56.864 -42.036 -61.982  0.00  0.00    +0.000 S 
ATOM     16  O   UNL     1     -56.569 -43.243 -61.134  0.00  0.00    +0.000 OA
BRANCH  15  17
ATOM     17  C   UNL     1     -58.426 -42.355 -62.855  0.00  0.00    +0.000 C 
BRANCH  17  21
ATOM     18  C   UNL     1     -58.922 -42.590 -67.946  0.00  0.00    +0.000 C 
ATOM     19  C   UNL     1     -58.646 -42.688 -66.500  0.00  0.00    +0.000 A 
ATOM     20  C   UNL     1     -58.991 -41.942 -65.398  0.00  0.00    +0.000 A 
ATOM     21  C   UNL     1     -58.464 -42.663 -64.303  0.00  0.00    +0.000 A 
ATOM     22  N   UNL     1     -57.784 -43.741 -64.732  0.00  0.00    +0.000 NA
ATOM     23  O   UNL     1     -57.902 -43.752 -66.106  0.00  0.00    +0.000 OA
ENDBRANCH  17  21
ENDBRANCH  15  17
ENDBRANCH   1  15
BRANCH  13  24
ATOM     24  C   UNL     1     -55.415 -39.431 -63.586  0.00  0.00    +0.000 C 
ATOM     25  O   UNL     1     -56.563 -39.056 -63.754  0.00  0.00    +0.000 OA
BRANCH  24  26
ATOM     26  C   UNL     1     -54.374 -38.485 -63.143  0.00  0.00    +0.000 C 
ATOM     27  C   UNL     1     -54.742 -37.048 -62.877  0.00  0.00    +0.000 C 
ATOM     28  C   UNL     1     -53.877 -37.386 -64.053  0.00  0.00    +0.000 C 
ENDBRANCH  24  26
ENDBRANCH  13  24
TORSDOF 5
ENDMDL
MODEL 2
REMARK VINA RESULT:    -6.739     12.796     15.164
REMARK INTER + INTRA:          -9.666
REMARK INTER:                  -8.989
REMARK INTRA:                  -0.677
REMARK UNBOUND:                -0.957
REMARK  Name = 
REMARK  6 active torsions:
REMARK  status: ('A' for Active; 'I' for Inactive)
REMARK    1  A    between atoms: C_1  and  C_2
REMARK    2  A    between atoms: C_4  and  C_5
REMARK    3  A    between atoms: C_5  and  S_6
REMARK    4  A    between atoms: S_6  and  C_8
REMARK    5  A    between atoms: C_20  and  C_21
REMARK    6  A    between atoms: C_21  and  C_23
REMARK                            x       y       z     vdW  Elec       q    Type
REMARK                         _______ _______ _______ _____ _____    ______ ____
ROOT
ATOM      1  C   UNL     1     -54.185 -42.458 -78.245  0.00  0.00    +0.000 A 
ATOM      2  N   UNL     1     -53.984 -43.070 -76.993  0.00  0.00    +0.000 N 
ATOM      3  C   UNL     1     -54.250 -44.455 -76.814  0.00  0.00    +0.000 A 
ATOM      4  C   UNL     1     -53.721 -45.207 -75.748  0.00  0.00    +0.000 A 
ATOM      5 BR   UNL     1     -52.451 -44.456 -74.555  0.00  0.00    +0.000 Br
ATOM      6  C   UNL     1     -54.096 -46.543 -75.546  0.00  0.00    +0.000 A 
ATOM      7  C   UNL     1     -54.991 -47.152 -76.433  0.00  0.00    +0.000 A 
ATOM      8  C   UNL     1     -55.527 -46.427 -77.497  0.00  0.00    +0.000 A 
ATOM      9 CL   UNL     1     -56.565 -47.290 -78.575  0.00  0.00    +0.000 Cl
ATOM     10  C   UNL     1     -55.171 -45.081 -77.668  0.00  0.00    +0.000 A 
ATOM     11  C   UNL     1     -55.751 -44.213 -78.711  0.00  0.00    +0.000 A 
ATOM     12  O   UNL     1     -56.890 -44.379 -79.128  0.00  0.00    +0.000 OA
ATOM     13  C   UNL     1     -54.929 -43.057 -79.201  0.00  0.00    +0.000 A 
ATOM     14  H   UNL     1     -53.116 -42.753 -76.539  0.00  0.00    +0.000 HD
ENDROOT
BRANCH   1  15
ATOM     15  S   UNL     1     -53.022 -41.102 -78.553  0.00  0.00    +0.000 S 
ATOM     16  O   UNL     1     -51.698 -41.789 -78.747  0.00  0.00    +0.000 OA
BRANCH  15  17
ATOM     17  C   UNL     1     -52.886 -40.070 -77.064  0.00  0.00    +0.000 C 
BRANCH  17  21
ATOM     18  C   UNL     1     -48.633 -38.582 -74.632  0.00  0.00    +0.000 C 
ATOM     19  C   UNL     1     -49.817 -39.204 -75.253  0.00  0.00    +0.000 A 
ATOM     20  C   UNL     1     -50.887 -38.736 -75.979  0.00  0.00    +0.000 A 
ATOM     21  C   UNL     1     -51.603 -39.897 -76.346  0.00  0.00    +0.000 A 
ATOM     22  N   UNL     1     -51.033 -40.991 -75.809  0.00  0.00    +0.000 NA
ATOM     23  O   UNL     1     -49.917 -40.552 -75.129  0.00  0.00    +0.000 OA
ENDBRANCH  17  21
ENDBRANCH  15  17
ENDBRANCH   1  15
BRANCH  13  24
ATOM     24  C   UNL     1     -54.952 -42.891 -80.682  0.00  0.00    +0.000 C 
ATOM     25  O   UNL     1     -54.433 -43.721 -81.407  0.00  0.00    +0.000 OA
BRANCH  24  26
ATOM     26  C   UNL     1     -55.656 -41.728 -81.256  0.00  0.00    +0.000 C 
ATOM     27  C   UNL     1     -55.489 -41.409 -82.719  0.00  0.00    +0.000 C 
ATOM     28  C   UNL     1     -54.903 -40.493 -81.689  0.00  0.00    +0.000 C 
ENDBRANCH  24  26
ENDBRANCH  13  24
TORSDOF 5
ENDMDL
MODEL 3
REMARK VINA RESULT:    -6.673      3.359      5.506
REMARK INTER + INTRA:          -9.580
REMARK INTER:                  -8.697
REMARK INTRA:                  -0.884
REMARK UNBOUND:                -0.957
REMARK  Name = 
REMARK  6 active torsions:
REMARK  status: ('A' for Active; 'I' for Inactive)
REMARK    1  A    between atoms: C_1  and  C_2
REMARK    2  A    between atoms: C_4  and  C_5
REMARK    3  A    between atoms: C_5  and  S_6
REMARK    4  A    between atoms: S_6  and  C_8
REMARK    5  A    between atoms: C_20  and  C_21
REMARK    6  A    between atoms: C_21  and  C_23
REMARK                            x       y       z     vdW  Elec       q    Type
REMARK                         _______ _______ _______ _____ _____    ______ ____
ROOT
ATOM      1  C   UNL     1     -57.747 -41.076 -62.773  0.00  0.00    +0.000 A 
ATOM      2  N   UNL     1     -57.273 -39.803 -62.402  0.00  0.00    +0.000 N 
ATOM      3  C   UNL     1     -56.185 -39.206 -63.097  0.00  0.00    +0.000 A 
ATOM      4  C   UNL     1     -55.914 -37.825 -63.056  0.00  0.00    +0.000 A 
ATOM      5 BR   UNL     1     -57.102 -36.618 -62.203  0.00  0.00    +0.000 Br
ATOM      6  C   UNL     1     -54.768 -37.294 -63.665  0.00  0.00    +0.000 A 
ATOM      7  C   UNL     1     -53.891 -38.142 -64.350  0.00  0.00    +0.000 A 
ATOM      8  C   UNL     1     -54.140 -39.514 -64.405  0.00  0.00    +0.000 A 
ATOM      9 CL   UNL     1     -53.037 -40.463 -65.334  0.00  0.00    +0.000 Cl
ATOM     10  C   UNL     1     -55.271 -40.038 -63.761  0.00  0.00    +0.000 A 
ATOM     11  C   UNL     1     -55.571 -41.482 -63.693  0.00  0.00    +0.000 A 
ATOM     12  O   UNL     1     -54.683 -42.325 -63.686  0.00  0.00    +0.000 OA
ATOM     13  C   UNL     1     -57.005 -41.896 -63.549  0.00  0.00    +0.000 A 
ATOM     14  H   UNL     1     -58.038 -39.149 -62.190  0.00  0.00    +0.000 HD
ENDROOT
BRANCH   1  15
ATOM     15  S   UNL     1     -59.528 -41.264 -62.494  0.00  0.00    +0.000 S 
ATOM     16  O   UNL     1     -60.036 -39.852 -62.389  0.00  0.00    +0.000 OA
BRANCH  15  17
ATOM     17  C   UNL     1     -59.810 -42.064 -60.887  0.00  0.00    +0.000 C 
BRANCH  17  21
ATOM     18  C   UNL     1     -61.750 -46.694 -59.879  0.00  0.00    +0.000 C 
ATOM     19  C   UNL     1     -61.115 -45.449 -60.348  0.00  0.00    +0.000 A 
ATOM     20  C   UNL     1     -61.094 -44.147 -59.904  0.00  0.00    +0.000 A 
ATOM     21  C   UNL     1     -60.203 -43.488 -60.780  0.00  0.00    +0.000 A 
ATOM     22  N   UNL     1     -59.771 -44.330 -61.736  0.00  0.00    +0.000 NA
ATOM     23  O   UNL     1     -60.343 -45.554 -61.459  0.00  0.00    +0.000 OA
ENDBRANCH  17  21
ENDBRANCH  15  17
ENDBRANCH   1  15
BRANCH  13  24
ATOM     24  C   UNL     1     -57.390 -43.038 -64.427  0.00  0.00    +0.000 C 
ATOM     25  O   UNL     1     -57.359 -44.181 -64.005  0.00  0.00    +0.000 OA
BRANCH  24  26
ATOM     26  C   UNL     1     -57.853 -42.756 -65.799  0.00  0.00    +0.000 C 
ATOM     27  C   UNL     1     -57.939 -43.881 -66.798  0.00  0.00    +0.000 C 
ATOM     28  C   UNL     1     -56.904 -42.812 -66.972  0.00  0.00    +0.000 C 
ENDBRANCH  24  26
ENDBRANCH  13  24
TORSDOF 5
ENDMDL
MODEL 4
REMARK VINA RESULT:    -6.644     11.959     14.568
REMARK INTER + INTRA:          -9.544
REMARK INTER:                  -8.393
REMARK INTRA:                  -1.151
REMARK UNBOUND:                -0.957
REMARK  Name = 
REMARK  6 active torsions:
REMARK  status: ('A' for Active; 'I' for Inactive)
REMARK    1  A    between atoms: C_1  and  C_2
REMARK    2  A    between atoms: C_4  and  C_5
REMARK    3  A    between atoms: C_5  and  S_6
REMARK    4  A    between atoms: S_6  and  C_8
REMARK    5  A    between atoms: C_20  and  C_21
REMARK    6  A    between atoms: C_21  and  C_23
REMARK                            x       y       z     vdW  Elec       q    Type
REMARK                         _______ _______ _______ _____ _____    ______ ____
ROOT
ATOM      1  C   UNL     1     -54.763 -43.393 -78.193  0.00  0.00    +0.000 A 
ATOM      2  N   UNL     1     -54.863 -44.455 -79.113  0.00  0.00    +0.000 N 
ATOM      3  C   UNL     1     -55.235 -45.756 -78.677  0.00  0.00    +0.000 A 
ATOM      4  C   UNL     1     -55.728 -46.746 -79.548  0.00  0.00    +0.000 A 
ATOM      5 BR   UNL     1     -56.104 -46.351 -81.365  0.00  0.00    +0.000 Br
ATOM      6  C   UNL     1     -55.979 -48.049 -79.097  0.00  0.00    +0.000 A 
ATOM      7  C   UNL     1     -55.764 -48.370 -77.752  0.00  0.00    +0.000 A 
ATOM      8  C   UNL     1     -55.278 -47.405 -76.869  0.00  0.00    +0.000 A 
ATOM      9 CL   UNL     1     -55.115 -47.881 -75.217  0.00  0.00    +0.000 Cl
ATOM     10  C   UNL     1     -54.996 -46.114 -77.341  0.00  0.00    +0.000 A 
ATOM     11  C   UNL     1     -54.401 -45.055 -76.503  0.00  0.00    +0.000 A 
ATOM     12  O   UNL     1     -53.641 -45.315 -75.579  0.00  0.00    +0.000 OA
ATOM     13  C   UNL     1     -54.689 -43.628 -76.864  0.00  0.00    +0.000 A 
ATOM     14  H   UNL     1     -55.314 -44.167 -79.992  0.00  0.00    +0.000 HD
ENDROOT
BRANCH   1  15
ATOM     15  S   UNL     1     -55.192 -41.793 -78.928  0.00  0.00    +0.000 S 
ATOM     16  O   UNL     1     -55.627 -42.134 -80.327  0.00  0.00    +0.000 OA
BRANCH  15  17
ATOM     17  C   UNL     1     -53.699 -40.765 -79.058  0.00  0.00    +0.000 C 
BRANCH  17  21
ATOM     18  C   UNL     1     -50.007 -40.986 -75.517  0.00  0.00    +0.000 C 
ATOM     19  C   UNL     1     -51.105 -40.724 -76.466  0.00  0.00    +0.000 A 
ATOM     20  C   UNL     1     -51.661 -41.416 -77.516  0.00  0.00    +0.000 A 
ATOM     21  C   UNL     1     -52.750 -40.618 -77.930  0.00  0.00    +0.000 A 
ATOM     22  N   UNL     1     -52.799 -39.480 -77.216  0.00  0.00    +0.000 NA
ATOM     23  O   UNL     1     -51.769 -39.552 -76.301  0.00  0.00    +0.000 OA
ENDBRANCH  17  21
ENDBRANCH  15  17
ENDBRANCH   1  15
BRANCH  13  24
ATOM     24  C   UNL     1     -55.010 -42.766 -75.691  0.00  0.00    +0.000 C 
ATOM     25  O   UNL     1     -54.123 -42.198 -75.078  0.00  0.00    +0.000 OA
BRANCH  24  26
ATOM     26  C   UNL     1     -56.424 -42.575 -75.316  0.00  0.00    +0.000 C 
ATOM     27  C   UNL     1     -56.759 -41.892 -74.015  0.00  0.00    +0.000 C 
ATOM     28  C   UNL     1     -57.044 -43.354 -74.180  0.00  0.00    +0.000 C 
ENDBRANCH  24  26
ENDBRANCH  13  24
TORSDOF 5
ENDMDL
MODEL 5
REMARK VINA RESULT:    -6.567     12.431     14.773
REMARK INTER + INTRA:          -9.444
REMARK INTER:                  -8.367
REMARK INTRA:                  -1.077
REMARK UNBOUND:                -0.957
REMARK  Name = 
REMARK  6 active torsions:
REMARK  status: ('A' for Active; 'I' for Inactive)
REMARK    1  A    between atoms: C_1  and  C_2
REMARK    2  A    between atoms: C_4  and  C_5
REMARK    3  A    between atoms: C_5  and  S_6
REMARK    4  A    between atoms: S_6  and  C_8
REMARK    5  A    between atoms: C_20  and  C_21
REMARK    6  A    between atoms: C_21  and  C_23
REMARK                            x       y       z     vdW  Elec       q    Type
REMARK                         _______ _______ _______ _____ _____    ______ ____
ROOT
ATOM      1  C   UNL     1     -56.075 -41.846 -77.408  0.00  0.00    +0.000 A 
ATOM      2  N   UNL     1     -55.169 -40.778 -77.262  0.00  0.00    +0.000 N 
ATOM      3  C   UNL     1     -53.837 -41.014 -76.824  0.00  0.00    +0.000 A 
ATOM      4  C   UNL     1     -52.789 -40.096 -77.023  0.00  0.00    +0.000 A 
ATOM      5 BR   UNL     1     -53.043 -38.531 -78.065  0.00  0.00    +0.000 Br
ATOM      6  C   UNL     1     -51.516 -40.319 -76.479  0.00  0.00    +0.000 A 
ATOM      7  C   UNL     1     -51.271 -41.486 -75.747  0.00  0.00    +0.000 A 
ATOM      8  C   UNL     1     -52.293 -42.412 -75.538  0.00  0.00    +0.000 A 
ATOM      9 CL   UNL     1     -51.870 -43.852 -74.685  0.00  0.00    +0.000 Cl
ATOM     10  C   UNL     1     -53.572 -42.160 -76.058  0.00  0.00    +0.000 A 
ATOM     11  C   UNL     1     -54.734 -43.037 -75.816  0.00  0.00    +0.000 A 
ATOM     12  O   UNL     1     -54.845 -43.692 -74.787  0.00  0.00    +0.000 OA
ATOM     13  C   UNL     1     -55.832 -43.047 -76.839  0.00  0.00    +0.000 A 
ATOM     14  H   UNL     1     -55.237 -40.101 -78.034  0.00  0.00    +0.000 HD
ENDROOT
BRANCH   1  15
ATOM     15  S   UNL     1     -57.271 -41.567 -78.741  0.00  0.00    +0.000 S 
ATOM     16  O   UNL     1     -58.375 -42.548 -78.457  0.00  0.00    +0.000 OA
BRANCH  15  17
ATOM     17  C   UNL     1     -56.525 -42.033 -80.331  0.00  0.00    +0.000 C 
BRANCH  17  21
ATOM     18  C   UNL     1     -51.454 -42.511 -80.849  0.00  0.00    +0.000 C 
ATOM     19  C   UNL     1     -52.896 -42.206 -80.831  0.00  0.00    +0.000 A 
ATOM     20  C   UNL     1     -54.006 -42.812 -80.290  0.00  0.00    +0.000 A 
ATOM     21  C   UNL     1     -55.068 -41.925 -80.574  0.00  0.00    +0.000 A 
ATOM     22  N   UNL     1     -54.631 -40.884 -81.304  0.00  0.00    +0.000 NA
ATOM     23  O   UNL     1     -53.273 -41.064 -81.460  0.00  0.00    +0.000 OA
ENDBRANCH  17  21
ENDBRANCH  15  17
ENDBRANCH   1  15
BRANCH  13  24
ATOM     24  C   UNL     1     -56.336 -44.412 -77.163  0.00  0.00    +0.000 C 
ATOM     25  O   UNL     1     -57.438 -44.771 -76.787  0.00  0.00    +0.000 OA
BRANCH  24  26
ATOM     26  C   UNL     1     -55.497 -45.302 -77.988  0.00  0.00    +0.000 C 
ATOM     27  C   UNL     1     -55.935 -46.725 -78.223  0.00  0.00    +0.000 C 
ATOM     28  C   UNL     1     -54.733 -46.450 -77.372  0.00  0.00    +0.000 C 
ENDBRANCH  24  26
ENDBRANCH  13  24
TORSDOF 5
ENDMDL
MODEL 6
REMARK VINA RESULT:    -6.555      2.654      4.308
REMARK INTER + INTRA:          -9.429
REMARK INTER:                  -8.441
REMARK INTRA:                  -0.987
REMARK UNBOUND:                -0.957
REMARK  Name = 
REMARK  6 active torsions:
REMARK  status: ('A' for Active; 'I' for Inactive)
REMARK    1  A    between atoms: C_1  and  C_2
REMARK    2  A    between atoms: C_4  and  C_5
REMARK    3  A    between atoms: C_5  and  S_6
REMARK    4  A    between atoms: S_6  and  C_8
REMARK    5  A    between atoms: C_20  and  C_21
REMARK    6  A    between atoms: C_21  and  C_23
REMARK                            x       y       z     vdW  Elec       q    Type
REMARK                         _______ _______ _______ _____ _____    ______ ____
ROOT
ATOM      1  C   UNL     1     -56.250 -42.553 -62.912  0.00  0.00    +0.000 A 
ATOM      2  N   UNL     1     -55.241 -43.528 -63.025  0.00  0.00    +0.000 N 
ATOM      3  C   UNL     1     -53.908 -43.155 -63.350  0.00  0.00    +0.000 A 
ATOM      4  C   UNL     1     -52.797 -43.984 -63.103  0.00  0.00    +0.000 A 
ATOM      5 BR   UNL     1     -52.982 -45.609 -62.142  0.00  0.00    +0.000 Br
ATOM      6  C   UNL     1     -51.514 -43.625 -63.538  0.00  0.00    +0.000 A 
ATOM      7  C   UNL     1     -51.323 -42.409 -64.205  0.00  0.00    +0.000 A 
ATOM      8  C   UNL     1     -52.409 -41.571 -64.459  0.00  0.00    +0.000 A 
ATOM      9 CL   UNL     1     -52.058 -40.063 -65.224  0.00  0.00    +0.000 Cl
ATOM     10  C   UNL     1     -53.694 -41.958 -64.051  0.00  0.00    +0.000 A 
ATOM     11  C   UNL     1     -54.911 -41.179 -64.350  0.00  0.00    +0.000 A 
ATOM     12  O   UNL     1     -55.005 -40.492 -65.359  0.00  0.00    +0.000 OA
ATOM     13  C   UNL     1     -56.078 -41.311 -63.416  0.00  0.00    +0.000 A 
ATOM     14  H   UNL     1     -55.304 -44.241 -62.286  0.00  0.00    +0.000 HD
ENDROOT
BRANCH   1  15
ATOM     15  S   UNL     1     -57.511 -42.994 -61.687  0.00  0.00    +0.000 S 
ATOM     16  O   UNL     1     -58.815 -42.755 -62.396  0.00  0.00    +0.000 OA
BRANCH  15  17
ATOM     17  C   UNL     1     -57.431 -41.835 -60.290  0.00  0.00    +0.000 C 
BRANCH  17  21
ATOM     18  C   UNL     1     -53.886 -43.127 -56.828  0.00  0.00    +0.000 C 
ATOM     19  C   UNL     1     -54.836 -42.556 -57.801  0.00  0.00    +0.000 A 
ATOM     20  C   UNL     1     -55.772 -43.080 -58.661  0.00  0.00    +0.000 A 
ATOM     21  C   UNL     1     -56.398 -41.951 -59.234  0.00  0.00    +0.000 A 
ATOM     22  N   UNL     1     -55.823 -40.818 -58.795  0.00  0.00    +0.000 NA
ATOM     23  O   UNL     1     -54.848 -41.202 -57.898  0.00  0.00    +0.000 OA
ENDBRANCH  17  21
ENDBRANCH  15  17
ENDBRANCH   1  15
BRANCH  13  24
ATOM     24  C   UNL     1     -56.728 -40.012 -63.082  0.00  0.00    +0.000 C 
ATOM     25  O   UNL     1     -57.904 -39.823 -63.339  0.00  0.00    +0.000 OA
BRANCH  24  26
ATOM     26  C   UNL     1     -55.935 -38.976 -62.392  0.00  0.00    +0.000 C 
ATOM     27  C   UNL     1     -56.560 -37.636 -62.101  0.00  0.00    +0.000 C 
ATOM     28  C   UNL     1     -55.464 -37.738 -63.118  0.00  0.00    +0.000 C 
ENDBRANCH  24  26
ENDBRANCH  13  24
TORSDOF 5
ENDMDL
MODEL 7
REMARK VINA RESULT:    -6.430     12.535     14.947
REMARK INTER + INTRA:          -9.267
REMARK INTER:                  -8.863
REMARK INTRA:                  -0.404
REMARK UNBOUND:                -0.957
REMARK  Name = 
REMARK  6 active torsions:
REMARK  status: ('A' for Active; 'I' for Inactive)
REMARK    1  A    between atoms: C_1  and  C_2
REMARK    2  A    between atoms: C_4  and  C_5
REMARK    3  A    between atoms: C_5  and  S_6
REMARK    4  A    between atoms: S_6  and  C_8
REMARK    5  A    between atoms: C_20  and  C_21
REMARK    6  A    between atoms: C_21  and  C_23
REMARK                            x       y       z     vdW  Elec       q    Type
REMARK                         _______ _______ _______ _____ _____    ______ ____
ROOT
ATOM      1  C   UNL     1     -55.282 -42.336 -77.740  0.00  0.00    +0.000 A 
ATOM      2  N   UNL     1     -56.610 -42.733 -77.491  0.00  0.00    +0.000 N 
ATOM      3  C   UNL     1     -57.212 -42.491 -76.226  0.00  0.00    +0.000 A 
ATOM      4  C   UNL     1     -58.605 -42.493 -76.026  0.00  0.00    +0.000 A 
ATOM      5 BR   UNL     1     -59.804 -42.646 -77.488  0.00  0.00    +0.000 Br
ATOM      6  C   UNL     1     -59.154 -42.360 -74.743  0.00  0.00    +0.000 A 
ATOM      7  C   UNL     1     -58.306 -42.193 -73.641  0.00  0.00    +0.000 A 
ATOM      8  C   UNL     1     -56.922 -42.185 -73.815  0.00  0.00    +0.000 A 
ATOM      9 CL   UNL     1     -55.967 -41.901 -72.405  0.00  0.00    +0.000 Cl
ATOM     10  C   UNL     1     -56.385 -42.356 -75.100  0.00  0.00    +0.000 A 
ATOM     11  C   UNL     1     -54.937 -42.446 -75.370  0.00  0.00    +0.000 A 
ATOM     12  O   UNL     1     -54.156 -42.908 -74.548  0.00  0.00    +0.000 OA
ATOM     13  C   UNL     1     -54.446 -42.027 -76.724  0.00  0.00    +0.000 A 
ATOM     14  H   UNL     1     -57.230 -42.539 -78.289  0.00  0.00    +0.000 HD
ENDROOT
BRANCH   1  15
ATOM     15  S   UNL     1     -55.006 -41.872 -79.470  0.00  0.00    +0.000 S 
ATOM     16  O   UNL     1     -56.320 -42.160 -80.144  0.00  0.00    +0.000 OA
BRANCH  15  17
ATOM     17  C   UNL     1     -53.765 -42.977 -80.204  0.00  0.00    +0.000 C 
BRANCH  17  21
ATOM     18  C   UNL     1     -50.223 -41.949 -83.756  0.00  0.00    +0.000 C 
ATOM     19  C   UNL     1     -51.386 -42.201 -82.885  0.00  0.00    +0.000 A 
ATOM     20  C   UNL     1     -51.550 -42.664 -81.601  0.00  0.00    +0.000 A 
ATOM     21  C   UNL     1     -52.939 -42.566 -81.363  0.00  0.00    +0.000 A 
ATOM     22  N   UNL     1     -53.577 -42.137 -82.466  0.00  0.00    +0.000 NA
ATOM     23  O   UNL     1     -52.601 -41.909 -83.413  0.00  0.00    +0.000 OA
ENDBRANCH  17  21
ENDBRANCH  15  17
ENDBRANCH   1  15
BRANCH  13  24
ATOM     24  C   UNL     1     -53.210 -41.195 -76.682  0.00  0.00    +0.000 C 
ATOM     25  O   UNL     1     -53.282 -39.979 -76.640  0.00  0.00    +0.000 OA
BRANCH  24  26
ATOM     26  C   UNL     1     -51.899 -41.871 -76.643  0.00  0.00    +0.000 C 
ATOM     27  C   UNL     1     -50.900 -41.490 -75.581  0.00  0.00    +0.000 C 
ATOM     28  C   UNL     1     -50.630 -41.140 -77.013  0.00  0.00    +0.000 C 
ENDBRANCH  24  26
ENDBRANCH  13  24
TORSDOF 5
ENDMDL
MODEL 8
REMARK VINA RESULT:    -6.237     13.040     15.290
REMARK INTER + INTRA:          -9.017
REMARK INTER:                  -8.520
REMARK INTRA:                  -0.497
REMARK UNBOUND:                -0.957
REMARK  Name = 
REMARK  6 active torsions:
REMARK  status: ('A' for Active; 'I' for Inactive)
REMARK    1  A    between atoms: C_1  and  C_2
REMARK    2  A    between atoms: C_4  and  C_5
REMARK    3  A    between atoms: C_5  and  S_6
REMARK    4  A    between atoms: S_6  and  C_8
REMARK    5  A    between atoms: C_20  and  C_21
REMARK    6  A    between atoms: C_21  and  C_23
REMARK                            x       y       z     vdW  Elec       q    Type
REMARK                         _______ _______ _______ _____ _____    ______ ____
ROOT
ATOM      1  C   UNL     1     -53.440 -42.453 -78.370  0.00  0.00    +0.000 A 
ATOM      2  N   UNL     1     -54.622 -43.206 -78.511  0.00  0.00    +0.000 N 
ATOM      3  C   UNL     1     -55.620 -43.181 -77.499  0.00  0.00    +0.000 A 
ATOM      4  C   UNL     1     -56.953 -43.572 -77.725  0.00  0.00    +0.000 A 
ATOM      5 BR   UNL     1     -57.566 -43.996 -79.470  0.00  0.00    +0.000 Br
ATOM      6  C   UNL     1     -57.878 -43.638 -76.674  0.00  0.00    +0.000 A 
ATOM      7  C   UNL     1     -57.482 -43.283 -75.379  0.00  0.00    +0.000 A 
ATOM      8  C   UNL     1     -56.166 -42.891 -75.131  0.00  0.00    +0.000 A 
ATOM      9 CL   UNL     1     -55.796 -42.406 -73.515  0.00  0.00    +0.000 Cl
ATOM     10  C   UNL     1     -55.241 -42.864 -76.185  0.00  0.00    +0.000 A 
ATOM     11  C   UNL     1     -53.811 -42.546 -76.003  0.00  0.00    +0.000 A 
ATOM     12  O   UNL     1     -53.220 -42.805 -74.962  0.00  0.00    +0.000 OA
ATOM     13  C   UNL     1     -53.067 -41.962 -77.167  0.00  0.00    +0.000 A 
ATOM     14  H   UNL     1     -55.000 -43.161 -79.467  0.00  0.00    +0.000 HD
ENDROOT
BRANCH   1  15
ATOM     15  S   UNL     1     -52.791 -41.871 -79.959  0.00  0.00    +0.000 S 
ATOM     16  O   UNL     1     -53.131 -40.406 -79.983  0.00  0.00    +0.000 OA
BRANCH  15  17
ATOM     17  C   UNL     1     -53.706 -42.664 -81.314  0.00  0.00    +0.000 C 
BRANCH  17  21
ATOM     18  C   UNL     1     -57.064 -39.733 -83.835  0.00  0.00    +0.000 C 
ATOM     19  C   UNL     1     -55.977 -40.563 -83.284  0.00  0.00    +0.000 A 
ATOM     20  C   UNL     1     -55.724 -41.138 -82.061  0.00  0.00    +0.000 A 
ATOM     21  C   UNL     1     -54.540 -41.883 -82.257  0.00  0.00    +0.000 A 
ATOM     22  N   UNL     1     -54.073 -41.707 -83.506  0.00  0.00    +0.000 NA
ATOM     23  O   UNL     1     -54.976 -40.882 -84.144  0.00  0.00    +0.000 OA
ENDBRANCH  17  21
ENDBRANCH  15  17
ENDBRANCH   1  15
BRANCH  13  24
ATOM     24  C   UNL     1     -52.175 -40.826 -76.799  0.00  0.00    +0.000 C 
ATOM     25  O   UNL     1     -52.635 -39.714 -76.608  0.00  0.00    +0.000 OA
BRANCH  24  26
ATOM     26  C   UNL     1     -50.733 -41.082 -76.625  0.00  0.00    +0.000 C 
ATOM     27  C   UNL     1     -50.204 -41.441 -75.260  0.00  0.00    +0.000 C 
ATOM     28  C   UNL     1     -49.853 -40.117 -75.867  0.00  0.00    +0.000 C 
ENDBRANCH  24  26
ENDBRANCH  13  24
TORSDOF 5
ENDMDL
MODEL 9
REMARK VINA RESULT:    -6.112     12.871     14.962
REMARK INTER + INTRA:          -8.855
REMARK INTER:                  -7.779
REMARK INTRA:                  -1.076
REMARK UNBOUND:                -0.957
REMARK  Name = 
REMARK  6 active torsions:
REMARK  status: ('A' for Active; 'I' for Inactive)
REMARK    1  A    between atoms: C_1  and  C_2
REMARK    2  A    between atoms: C_4  and  C_5
REMARK    3  A    between atoms: C_5  and  S_6
REMARK    4  A    between atoms: S_6  and  C_8
REMARK    5  A    between atoms: C_20  and  C_21
REMARK    6  A    between atoms: C_21  and  C_23
REMARK                            x       y       z     vdW  Elec       q    Type
REMARK                         _______ _______ _______ _____ _____    ______ ____
ROOT
ATOM      1  C   UNL     1     -55.599 -43.271 -77.902  0.00  0.00    +0.000 A 
ATOM      2  N   UNL     1     -54.938 -43.758 -76.758  0.00  0.00    +0.000 N 
ATOM      3  C   UNL     1     -54.922 -45.150 -76.469  0.00  0.00    +0.000 A 
ATOM      4  C   UNL     1     -53.988 -45.743 -75.599  0.00  0.00    +0.000 A 
ATOM      5 BR   UNL     1     -52.549 -44.740 -74.877  0.00  0.00    +0.000 Br
ATOM      6  C   UNL     1     -54.075 -47.100 -75.256  0.00  0.00    +0.000 A 
ATOM      7  C   UNL     1     -55.091 -47.889 -75.807  0.00  0.00    +0.000 A 
ATOM      8  C   UNL     1     -56.028 -47.324 -76.673  0.00  0.00    +0.000 A 
ATOM      9 CL   UNL     1     -57.197 -48.397 -77.355  0.00  0.00    +0.000 Cl
ATOM     10  C   UNL     1     -55.951 -45.957 -76.980  0.00  0.00    +0.000 A 
ATOM     11  C   UNL     1     -56.944 -45.255 -77.816  0.00  0.00    +0.000 A 
ATOM     12  O   UNL     1     -58.116 -45.605 -77.856  0.00  0.00    +0.000 OA
ATOM     13  C   UNL     1     -56.495 -44.035 -78.565  0.00  0.00    +0.000 A 
ATOM     14  H   UNL     1     -54.034 -43.292 -76.602  0.00  0.00    +0.000 HD
ENDROOT
BRANCH   1  15
ATOM     15  S   UNL     1     -54.805 -41.794 -78.589  0.00  0.00    +0.000 S 
ATOM     16  O   UNL     1     -53.481 -42.290 -79.101  0.00  0.00    +0.000 OA
BRANCH  15  17
ATOM     17  C   UNL     1     -54.463 -40.612 -77.252  0.00  0.00    +0.000 C 
BRANCH  17  21
ATOM     18  C   UNL     1     -49.717 -40.758 -75.335  0.00  0.00    +0.000 C 
ATOM     19  C   UNL     1     -51.033 -40.521 -75.956  0.00  0.00    +0.000 A 
ATOM     20  C   UNL     1     -52.161 -41.283 -76.153  0.00  0.00    +0.000 A 
ATOM     21  C   UNL     1     -53.093 -40.394 -76.732  0.00  0.00    +0.000 A 
ATOM     22  N   UNL     1     -52.532 -39.188 -76.935  0.00  0.00    +0.000 NA
ATOM     23  O   UNL     1     -51.245 -39.274 -76.446  0.00  0.00    +0.000 OA
ENDBRANCH  17  21
ENDBRANCH  15  17
ENDBRANCH   1  15
BRANCH  13  24
ATOM     24  C   UNL     1     -56.989 -43.980 -79.971  0.00  0.00    +0.000 C 
ATOM     25  O   UNL     1     -57.913 -43.246 -80.274  0.00  0.00    +0.000 OA
BRANCH  24  26
ATOM     26  C   UNL     1     -56.308 -44.793 -80.996  0.00  0.00    +0.000 C 
ATOM     27  C   UNL     1     -54.849 -45.129 -80.827  0.00  0.00    +0.000 C 
ATOM     28  C   UNL     1     -55.273 -44.189 -81.915  0.00  0.00    +0.000 C 
ENDBRANCH  24  26
ENDBRANCH  13  24
TORSDOF 5
ENDMDL
MODEL 10
REMARK VINA RESULT:    -5.932      3.958      5.822
REMARK INTER + INTRA:          -8.623
REMARK INTER:                  -7.506
REMARK INTRA:                  -1.117
REMARK UNBOUND:                -0.957
REMARK  Name = 
REMARK  6 active torsions:
REMARK  status: ('A' for Active; 'I' for Inactive)
REMARK    1  A    between atoms: C_1  and  C_2
REMARK    2  A    between atoms: C_4  and  C_5
REMARK    3  A    between atoms: C_5  and  S_6
REMARK    4  A    between atoms: S_6  and  C_8
REMARK    5  A    between atoms: C_20  and  C_21
REMARK    6  A    between atoms: C_21  and  C_23
REMARK                            x       y       z     vdW  Elec       q    Type
REMARK                         _______ _______ _______ _____ _____    ______ ____
ROOT
ATOM      1  C   UNL     1     -57.564 -41.070 -62.663  0.00  0.00    +0.000 A 
ATOM      2  N   UNL     1     -57.157 -39.765 -62.325  0.00  0.00    +0.000 N 
ATOM      3  C   UNL     1     -56.107 -39.127 -63.040  0.00  0.00    +0.000 A 
ATOM      4  C   UNL     1     -55.910 -37.733 -63.033  0.00  0.00    +0.000 A 
ATOM      5 BR   UNL     1     -57.158 -36.572 -62.200  0.00  0.00    +0.000 Br
ATOM      6  C   UNL     1     -54.798 -37.154 -63.661  0.00  0.00    +0.000 A 
ATOM      7  C   UNL     1     -53.879 -37.970 -64.331  0.00  0.00    +0.000 A 
ATOM      8  C   UNL     1     -54.055 -39.354 -64.353  0.00  0.00    +0.000 A 
ATOM      9 CL   UNL     1     -52.907 -40.264 -65.268  0.00  0.00    +0.000 Cl
ATOM     10  C   UNL     1     -55.152 -39.924 -63.690  0.00  0.00    +0.000 A 
ATOM     11  C   UNL     1     -55.373 -41.379 -63.587  0.00  0.00    +0.000 A 
ATOM     12  O   UNL     1     -54.441 -42.173 -63.567  0.00  0.00    +0.000 OA
ATOM     13  C   UNL     1     -56.782 -41.867 -63.425  0.00  0.00    +0.000 A 
ATOM     14  H   UNL     1     -57.956 -39.148 -62.123  0.00  0.00    +0.000 HD
ENDROOT
BRANCH   1  15
ATOM     15  S   UNL     1     -59.330 -41.347 -62.369  0.00  0.00    +0.000 S 
ATOM     16  O   UNL     1     -60.007 -40.688 -63.539  0.00  0.00    +0.000 OA
BRANCH  15  17
ATOM     17  C   UNL     1     -59.843 -40.456 -60.871  0.00  0.00    +0.000 C 
BRANCH  17  21
ATOM     18  C   UNL     1     -62.293 -35.976 -61.252  0.00  0.00    +0.000 C 
ATOM     19  C   UNL     1     -61.780 -37.355 -61.159  0.00  0.00    +0.000 A 
ATOM     20  C   UNL     1     -60.528 -37.920 -61.105  0.00  0.00    +0.000 A 
ATOM     21  C   UNL     1     -60.768 -39.300 -60.926  0.00  0.00    +0.000 A 
ATOM     22  N   UNL     1     -62.088 -39.555 -60.943  0.00  0.00    +0.000 NA
ATOM     23  O   UNL     1     -62.716 -38.336 -61.087  0.00  0.00    +0.000 OA
ENDBRANCH  17  21
ENDBRANCH  15  17
ENDBRANCH   1  15
BRANCH  13  24
ATOM     24  C   UNL     1     -57.109 -43.048 -64.274  0.00  0.00    +0.000 C 
ATOM     25  O   UNL     1     -57.355 -44.128 -63.765  0.00  0.00    +0.000 OA
BRANCH  24  26
ATOM     26  C   UNL     1     -57.176 -42.875 -65.737  0.00  0.00    +0.000 C 
ATOM     27  C   UNL     1     -57.680 -41.575 -66.308  0.00  0.00    +0.000 C 
ATOM     28  C   UNL     1     -58.501 -42.818 -66.459  0.00  0.00    +0.000 C 
ENDBRANCH  24  26
ENDBRANCH  13  24
TORSDOF 5
ENDMDL
MODEL 11
REMARK VINA RESULT:    -5.871     12.421     15.212
REMARK INTER + INTRA:          -8.544
REMARK INTER:                  -7.751
REMARK INTRA:                  -0.793
REMARK UNBOUND:                -0.957
REMARK  Name = 
REMARK  6 active torsions:
REMARK  status: ('A' for Active; 'I' for Inactive)
REMARK    1  A    between atoms: C_1  and  C_2
REMARK    2  A    between atoms: C_4  and  C_5
REMARK    3  A    between atoms: C_5  and  S_6
REMARK    4  A    between atoms: S_6  and  C_8
REMARK    5  A    between atoms: C_20  and  C_21
REMARK    6  A    between atoms: C_21  and  C_23
REMARK                            x       y       z     vdW  Elec       q    Type
REMARK                         _______ _______ _______ _____ _____    ______ ____
ROOT
ATOM      1  C   UNL     1     -54.680 -42.711 -78.179  0.00  0.00    +0.000 A 
ATOM      2  N   UNL     1     -55.327 -42.756 -79.430  0.00  0.00    +0.000 N 
ATOM      3  C   UNL     1     -56.527 -43.500 -79.597  0.00  0.00    +0.000 A 
ATOM      4  C   UNL     1     -57.420 -43.287 -80.664  0.00  0.00    +0.000 A 
ATOM      5 BR   UNL     1     -57.173 -41.847 -81.875  0.00  0.00    +0.000 Br
ATOM      6  C   UNL     1     -58.534 -44.116 -80.853  0.00  0.00    +0.000 A 
ATOM      7  C   UNL     1     -58.783 -45.158 -79.953  0.00  0.00    +0.000 A 
ATOM      8  C   UNL     1     -57.913 -45.388 -78.887  0.00  0.00    +0.000 A 
ATOM      9 CL   UNL     1     -58.346 -46.652 -77.793  0.00  0.00    +0.000 Cl
ATOM     10  C   UNL     1     -56.781 -44.574 -78.729  0.00  0.00    +0.000 A 
ATOM     11  C   UNL     1     -55.761 -44.793 -77.686  0.00  0.00    +0.000 A 
ATOM     12  O   UNL     1     -55.509 -45.912 -77.256  0.00  0.00    +0.000 OA
ATOM     13  C   UNL     1     -54.973 -43.608 -77.212  0.00  0.00    +0.000 A 
ATOM     14  H   UNL     1     -55.340 -41.838 -79.895  0.00  0.00    +0.000 HD
ENDROOT
BRANCH   1  15
ATOM     15  S   UNL     1     -53.827 -41.137 -77.893  0.00  0.00    +0.000 S 
ATOM     16  O   UNL     1     -53.676 -40.544 -79.267  0.00  0.00    +0.000 OA
BRANCH  15  17
ATOM     17  C   UNL     1     -52.157 -41.460 -77.254  0.00  0.00    +0.000 C 
BRANCH  17  21
ATOM     18  C   UNL     1     -48.861 -38.546 -74.635  0.00  0.00    +0.000 C 
ATOM     19  C   UNL     1     -49.910 -39.203 -75.437  0.00  0.00    +0.000 A 
ATOM     20  C   UNL     1     -50.141 -40.492 -75.856  0.00  0.00    +0.000 A 
ATOM     21  C   UNL     1     -51.390 -40.432 -76.514  0.00  0.00    +0.000 A 
ATOM     22  N   UNL     1     -51.845 -39.167 -76.548  0.00  0.00    +0.000 NA
ATOM     23  O   UNL     1     -50.917 -38.404 -75.871  0.00  0.00    +0.000 OA
ENDBRANCH  17  21
ENDBRANCH  15  17
ENDBRANCH   1  15
BRANCH  13  24
ATOM     24  C   UNL     1     -54.805 -43.552 -75.732  0.00  0.00    +0.000 C 
ATOM     25  O   UNL     1     -53.733 -43.823 -75.219  0.00  0.00    +0.000 OA
BRANCH  24  26
ATOM     26  C   UNL     1     -55.946 -43.118 -74.903  0.00  0.00    +0.000 C 
ATOM     27  C   UNL     1     -57.191 -42.595 -75.572  0.00  0.00    +0.000 C 
ATOM     28  C   UNL     1     -56.320 -41.659 -74.790  0.00  0.00    +0.000 C 
ENDBRANCH  24  26
ENDBRANCH  13  24
TORSDOF 5
ENDMDL
MODEL 12
REMARK VINA RESULT:    -5.829     12.710     14.379
REMARK INTER + INTRA:          -8.491
REMARK INTER:                  -7.641
REMARK INTRA:                  -0.850
REMARK UNBOUND:                -0.957
REMARK  Name = 
REMARK  6 active torsions:
REMARK  status: ('A' for Active; 'I' for Inactive)
REMARK    1  A    between atoms: C_1  and  C_2
REMARK    2  A    between atoms: C_4  and  C_5
REMARK    3  A    between atoms: C_5  and  S_6
REMARK    4  A    between atoms: S_6  and  C_8
REMARK    5  A    between atoms: C_20  and  C_21
REMARK    6  A    between atoms: C_21  and  C_23
REMARK                            x       y       z     vdW  Elec       q    Type
REMARK                         _______ _______ _______ _____ _____    ______ ____
ROOT
ATOM      1  C   UNL     1     -56.338 -42.430 -77.957  0.00  0.00    +0.000 A 
ATOM      2  N   UNL     1     -55.560 -41.259 -77.876  0.00  0.00    +0.000 N 
ATOM      3  C   UNL     1     -54.249 -41.298 -77.327  0.00  0.00    +0.000 A 
ATOM      4  C   UNL     1     -53.288 -40.297 -77.561  0.00  0.00    +0.000 A 
ATOM      5 BR   UNL     1     -53.619 -38.890 -78.790  0.00  0.00    +0.000 Br
ATOM      6  C   UNL     1     -52.045 -40.318 -76.912  0.00  0.00    +0.000 A 
ATOM      7  C   UNL     1     -51.739 -41.366 -76.036  0.00  0.00    +0.000 A 
ATOM      8  C   UNL     1     -52.675 -42.371 -75.790  0.00  0.00    +0.000 A 
ATOM      9 CL   UNL     1     -52.174 -43.655 -74.750  0.00  0.00    +0.000 Cl
ATOM     10  C   UNL     1     -53.929 -42.319 -76.418  0.00  0.00    +0.000 A 
ATOM     11  C   UNL     1     -55.010 -43.287 -76.154  0.00  0.00    +0.000 A 
ATOM     12  O   UNL     1     -55.133 -43.836 -75.066  0.00  0.00    +0.000 OA
ATOM     13  C   UNL     1     -56.018 -43.529 -77.239  0.00  0.00    +0.000 A 
ATOM     14  H   UNL     1     -55.637 -40.681 -78.724  0.00  0.00    +0.000 HD
ENDROOT
BRANCH   1  15
ATOM     15  S   UNL     1     -57.448 -42.430 -79.390  0.00  0.00    +0.000 S 
ATOM     16  O   UNL     1     -56.725 -41.603 -80.417  0.00  0.00    +0.000 OA
BRANCH  15  17
ATOM     17  C   UNL     1     -58.983 -41.553 -78.967  0.00  0.00    +0.000 C 
BRANCH  17  21
ATOM     18  C   UNL     1     -62.799 -44.442 -77.148  0.00  0.00    +0.000 C 
ATOM     19  C   UNL     1     -61.852 -43.498 -77.771  0.00  0.00    +0.000 A 
ATOM     20  C   UNL     1     -60.496 -43.292 -77.686  0.00  0.00    +0.000 A 
ATOM     21  C   UNL     1     -60.230 -42.276 -78.631  0.00  0.00    +0.000 A 
ATOM     22  N   UNL     1     -61.373 -41.850 -79.198  0.00  0.00    +0.000 NA
ATOM     23  O   UNL     1     -62.383 -42.619 -78.658  0.00  0.00    +0.000 OA
ENDBRANCH  17  21
ENDBRANCH  15  17
ENDBRANCH   1  15
BRANCH  13  24
ATOM     24  C   UNL     1     -56.353 -44.968 -77.436  0.00  0.00    +0.000 C 
ATOM     25  O   UNL     1     -57.504 -45.355 -77.340  0.00  0.00    +0.000 OA
BRANCH  24  26
ATOM     26  C   UNL     1     -55.273 -45.906 -77.797  0.00  0.00    +0.000 C 
ATOM     27  C   UNL     1     -55.574 -47.379 -77.900  0.00  0.00    +0.000 C 
ATOM     28  C   UNL     1     -54.708 -46.876 -76.786  0.00  0.00    +0.000 C 
ENDBRANCH  24  26
ENDBRANCH  13  24
TORSDOF 5
ENDMDL
MODEL 13
REMARK VINA RESULT:    -5.746     12.596     14.728
REMARK INTER + INTRA:          -8.384
REMARK INTER:                  -7.142
REMARK INTRA:                  -1.242
REMARK UNBOUND:                -0.957
REMARK  Name = 
REMARK  6 active torsions:
REMARK  status: ('A' for Active; 'I' for Inactive)
REMARK    1  A    between atoms: C_1  and  C_2
REMARK    2  A    between atoms: C_4  and  C_5
REMARK    3  A    between atoms: C_5  and  S_6
REMARK    4  A    between atoms: S_6  and  C_8
REMARK    5  A    between atoms: C_20  and  C_21
REMARK    6  A    between atoms: C_21  and  C_23
REMARK                            x       y       z     vdW  Elec       q    Type
REMARK                         _______ _______ _______ _____ _____    ______ ____
ROOT
ATOM      1  C   UNL     1     -56.506 -41.199 -78.762  0.00  0.00    +0.000 A 
ATOM      2  N   UNL     1     -55.757 -41.451 -79.927  0.00  0.00    +0.000 N 
ATOM      3  C   UNL     1     -54.370 -41.752 -79.845  0.00  0.00    +0.000 A 
ATOM      4  C   UNL     1     -53.658 -42.383 -80.883  0.00  0.00    +0.000 A 
ATOM      5 BR   UNL     1     -54.551 -43.049 -82.418  0.00  0.00    +0.000 Br
ATOM      6  C   UNL     1     -52.270 -42.561 -80.805  0.00  0.00    +0.000 A 
ATOM      7  C   UNL     1     -51.579 -42.131 -79.667  0.00  0.00    +0.000 A 
ATOM      8  C   UNL     1     -52.263 -41.505 -78.625  0.00  0.00    +0.000 A 
ATOM      9 CL   UNL     1     -51.332 -41.077 -77.235  0.00  0.00    +0.000 Cl
ATOM     10  C   UNL     1     -53.647 -41.300 -78.730  0.00  0.00    +0.000 A 
ATOM     11  C   UNL     1     -54.440 -40.573 -77.720  0.00  0.00    +0.000 A 
ATOM     12  O   UNL     1     -53.955 -39.673 -77.045  0.00  0.00    +0.000 OA
ATOM     13  C   UNL     1     -55.896 -40.911 -77.591  0.00  0.00    +0.000 A 
ATOM     14  H   UNL     1     -56.269 -42.038 -80.600  0.00  0.00    +0.000 HD
ENDROOT
BRANCH   1  15
ATOM     15  S   UNL     1     -58.230 -41.738 -78.912  0.00  0.00    +0.000 S 
ATOM     16  O   UNL     1     -59.021 -40.627 -78.276  0.00  0.00    +0.000 OA
BRANCH  15  17
ATOM     17  C   UNL     1     -58.489 -43.231 -77.911  0.00  0.00    +0.000 C 
BRANCH  17  21
ATOM     18  C   UNL     1     -56.755 -48.022 -78.420  0.00  0.00    +0.000 C 
ATOM     19  C   UNL     1     -57.146 -46.601 -78.452  0.00  0.00    +0.000 A 
ATOM     20  C   UNL     1     -57.991 -45.813 -77.706  0.00  0.00    +0.000 A 
ATOM     21  C   UNL     1     -57.814 -44.511 -78.226  0.00  0.00    +0.000 A 
ATOM     22  N   UNL     1     -56.966 -44.531 -79.269  0.00  0.00    +0.000 NA
ATOM     23  O   UNL     1     -56.550 -45.839 -79.405  0.00  0.00    +0.000 OA
ENDBRANCH  17  21
ENDBRANCH  15  17
ENDBRANCH   1  15
BRANCH  13  24
ATOM     24  C   UNL     1     -56.360 -41.035 -76.180  0.00  0.00    +0.000 C 
ATOM     25  O   UNL     1     -57.279 -40.349 -75.768  0.00  0.00    +0.000 OA
BRANCH  24  26
ATOM     26  C   UNL     1     -55.719 -42.035 -75.306  0.00  0.00    +0.000 C 
ATOM     27  C   UNL     1     -55.395 -43.401 -75.855  0.00  0.00    +0.000 C 
ATOM     28  C   UNL     1     -56.473 -43.252 -74.825  0.00  0.00    +0.000 C 
ENDBRANCH  24  26
ENDBRANCH  13  24
TORSDOF 5
ENDMDL
MODEL 14
REMARK VINA RESULT:    -5.658      3.647      4.984
REMARK INTER + INTRA:          -8.270
REMARK INTER:                  -7.091
REMARK INTRA:                  -1.178
REMARK UNBOUND:                -0.957
REMARK  Name = 
REMARK  6 active torsions:
REMARK  status: ('A' for Active; 'I' for Inactive)
REMARK    1  A    between atoms: C_1  and  C_2
REMARK    2  A    between atoms: C_4  and  C_5
REMARK    3  A    between atoms: C_5  and  S_6
REMARK    4  A    between atoms: S_6  and  C_8
REMARK    5  A    between atoms: C_20  and  C_21
REMARK    6  A    between atoms: C_21  and  C_23
REMARK                            x       y       z     vdW  Elec       q    Type
REMARK                         _______ _______ _______ _____ _____    ______ ____
ROOT
ATOM      1  C   UNL     1     -57.257 -40.970 -62.312  0.00  0.00    +0.000 A 
ATOM      2  N   UNL     1     -57.180 -41.492 -61.006  0.00  0.00    +0.000 N 
ATOM      3  C   UNL     1     -56.116 -42.360 -60.635  0.00  0.00    +0.000 A 
ATOM      4  C   UNL     1     -55.754 -42.601 -59.296  0.00  0.00    +0.000 A 
ATOM      5 BR   UNL     1     -56.555 -41.633 -57.875  0.00  0.00    +0.000 Br
ATOM      6  C   UNL     1     -54.772 -43.547 -58.970  0.00  0.00    +0.000 A 
ATOM      7  C   UNL     1     -54.119 -44.247 -59.991  0.00  0.00    +0.000 A 
ATOM      8  C   UNL     1     -54.460 -44.023 -61.325  0.00  0.00    +0.000 A 
ATOM      9 CL   UNL     1     -53.545 -44.883 -62.511  0.00  0.00    +0.000 Cl
ATOM     10  C   UNL     1     -55.469 -43.100 -61.637  0.00  0.00    +0.000 A 
ATOM     11  C   UNL     1     -55.956 -42.860 -63.009  0.00  0.00    +0.000 A 
ATOM     12  O   UNL     1     -55.947 -43.741 -63.860  0.00  0.00    +0.000 OA
ATOM     13  C   UNL     1     -56.543 -41.516 -63.322  0.00  0.00    +0.000 A 
ATOM     14  H   UNL     1     -57.409 -40.788 -60.291  0.00  0.00    +0.000 HD
ENDROOT
BRANCH   1  15
ATOM     15  S   UNL     1     -58.001 -39.319 -62.359  0.00  0.00    +0.000 S 
ATOM     16  O   UNL     1     -56.874 -38.394 -61.986  0.00  0.00    +0.000 OA
BRANCH  15  17
ATOM     17  C   UNL     1     -59.265 -39.186 -61.060  0.00  0.00    +0.000 C 
BRANCH  17  21
ATOM     18  C   UNL     1     -63.967 -41.095 -61.740  0.00  0.00    +0.000 C 
ATOM     19  C   UNL     1     -62.556 -40.744 -61.495  0.00  0.00    +0.000 A 
ATOM     20  C   UNL     1     -61.806 -39.601 -61.634  0.00  0.00    +0.000 A 
ATOM     21  C   UNL     1     -60.535 -39.946 -61.123  0.00  0.00    +0.000 A 
ATOM     22  N   UNL     1     -60.506 -41.242 -60.766  0.00  0.00    +0.000 NA
ATOM     23  O   UNL     1     -61.773 -41.735 -60.999  0.00  0.00    +0.000 OA
ENDBRANCH  17  21
ENDBRANCH  15  17
ENDBRANCH   1  15
BRANCH  13  24
ATOM     24  C   UNL     1     -56.090 -40.952 -64.625  0.00  0.00    +0.000 C 
ATOM     25  O   UNL     1     -54.931 -40.609 -64.782  0.00  0.00    +0.000 OA
BRANCH  24  26
ATOM     26  C   UNL     1     -57.056 -40.861 -65.736  0.00  0.00    +0.000 C 
ATOM     27  C   UNL     1     -58.243 -41.790 -65.763  0.00  0.00    +0.000 C 
ATOM     28  C   UNL     1     -57.153 -41.948 -66.780  0.00  0.00    +0.000 C 
ENDBRANCH  24  26
ENDBRANCH  13  24
TORSDOF 5
ENDMDL
MODEL 15
REMARK VINA RESULT:    -5.640      4.007      6.178
REMARK INTER + INTRA:          -8.246
REMARK INTER:                  -7.773
REMARK INTRA:                  -0.474
REMARK UNBOUND:                -0.957
REMARK  Name = 
REMARK  6 active torsions:
REMARK  status: ('A' for Active; 'I' for Inactive)
REMARK    1  A    between atoms: C_1  and  C_2
REMARK    2  A    between atoms: C_4  and  C_5
REMARK    3  A    between atoms: C_5  and  S_6
REMARK    4  A    between atoms: S_6  and  C_8
REMARK    5  A    between atoms: C_20  and  C_21
REMARK    6  A    between atoms: C_21  and  C_23
REMARK                            x       y       z     vdW  Elec       q    Type
REMARK                         _______ _______ _______ _____ _____    ______ ____
ROOT
ATOM      1  C   UNL     1     -58.048 -40.264 -62.534  0.00  0.00    +0.000 A 
ATOM      2  N   UNL     1     -58.093 -39.021 -61.874  0.00  0.00    +0.000 N 
ATOM      3  C   UNL     1     -57.377 -37.904 -62.384  0.00  0.00    +0.000 A 
ATOM      4  C   UNL     1     -57.671 -36.575 -62.028  0.00  0.00    +0.000 A 
ATOM      5 BR   UNL     1     -59.183 -36.159 -60.961  0.00  0.00    +0.000 Br
ATOM      6  C   UNL     1     -56.870 -35.512 -62.468  0.00  0.00    +0.000 A 
ATOM      7  C   UNL     1     -55.774 -35.769 -63.300  0.00  0.00    +0.000 A 
ATOM      8  C   UNL     1     -55.464 -37.078 -63.668  0.00  0.00    +0.000 A 
ATOM      9 CL   UNL     1     -54.137 -37.282 -64.754  0.00  0.00    +0.000 Cl
ATOM     10  C   UNL     1     -56.252 -38.136 -63.192  0.00  0.00    +0.000 A 
ATOM     11  C   UNL     1     -55.952 -39.557 -63.458  0.00  0.00    +0.000 A 
ATOM     12  O   UNL     1     -54.804 -39.955 -63.615  0.00  0.00    +0.000 OA
ATOM     13  C   UNL     1     -57.093 -40.530 -63.453  0.00  0.00    +0.000 A 
ATOM     14  H   UNL     1     -59.040 -38.790 -61.543  0.00  0.00    +0.000 HD
ENDROOT
BRANCH   1  15
ATOM     15  S   UNL     1     -59.589 -41.203 -62.357  0.00  0.00    +0.000 S 
ATOM     16  O   UNL     1     -60.649 -40.147 -62.201  0.00  0.00    +0.000 OA
BRANCH  15  17
ATOM     17  C   UNL     1     -59.542 -42.159 -60.812  0.00  0.00    +0.000 C 
BRANCH  17  21
ATOM     18  C   UNL     1     -61.626 -46.832 -61.009  0.00  0.00    +0.000 C 
ATOM     19  C   UNL     1     -61.103 -45.477 -60.754  0.00  0.00    +0.000 A 
ATOM     20  C   UNL     1     -60.306 -44.600 -61.452  0.00  0.00    +0.000 A 
ATOM     21  C   UNL     1     -60.281 -43.433 -60.658  0.00  0.00    +0.000 A 
ATOM     22  N   UNL     1     -60.965 -43.625 -59.516  0.00  0.00    +0.000 NA
ATOM     23  O   UNL     1     -61.478 -44.903 -59.583  0.00  0.00    +0.000 OA
ENDBRANCH  17  21
ENDBRANCH  15  17
ENDBRANCH   1  15
BRANCH  13  24
ATOM     24  C   UNL     1     -57.050 -41.510 -64.575  0.00  0.00    +0.000 C 
ATOM     25  O   UNL     1     -57.422 -41.191 -65.691  0.00  0.00    +0.000 OA
BRANCH  24  26
ATOM     26  C   UNL     1     -56.505 -42.857 -64.322  0.00  0.00    +0.000 C 
ATOM     27  C   UNL     1     -57.342 -43.869 -63.583  0.00  0.00    +0.000 C 
ATOM     28  C   UNL     1     -56.121 -43.297 -62.930  0.00  0.00    +0.000 C 
ENDBRANCH  24  26
ENDBRANCH  13  24
TORSDOF 5
ENDMDL
MODEL 16
REMARK VINA RESULT:    -5.570     12.459     14.666
REMARK INTER + INTRA:          -8.156
REMARK INTER:                  -7.468
REMARK INTRA:                  -0.687
REMARK UNBOUND:                -0.957
REMARK  Name = 
REMARK  6 active torsions:
REMARK  status: ('A' for Active; 'I' for Inactive)
REMARK    1  A    between atoms: C_1  and  C_2
REMARK    2  A    between atoms: C_4  and  C_5
REMARK    3  A    between atoms: C_5  and  S_6
REMARK    4  A    between atoms: S_6  and  C_8
REMARK    5  A    between atoms: C_20  and  C_21
REMARK    6  A    between atoms: C_21  and  C_23
REMARK                            x       y       z     vdW  Elec       q    Type
REMARK                         _______ _______ _______ _____ _____    ______ ____
ROOT
ATOM      1  C   UNL     1     -57.157 -45.797 -77.353  0.00  0.00    +0.000 A 
ATOM      2  N   UNL     1     -57.035 -44.471 -76.893  0.00  0.00    +0.000 N 
ATOM      3  C   UNL     1     -55.788 -43.984 -76.414  0.00  0.00    +0.000 A 
ATOM      4  C   UNL     1     -55.488 -42.612 -76.311  0.00  0.00    +0.000 A 
ATOM      5 BR   UNL     1     -56.678 -41.297 -76.983  0.00  0.00    +0.000 Br
ATOM      6  C   UNL     1     -54.289 -42.174 -75.731  0.00  0.00    +0.000 A 
ATOM      7  C   UNL     1     -53.359 -43.112 -75.270  0.00  0.00    +0.000 A 
ATOM      8  C   UNL     1     -53.634 -44.477 -75.363  0.00  0.00    +0.000 A 
ATOM      9 CL   UNL     1     -52.392 -45.553 -74.832  0.00  0.00    +0.000 Cl
ATOM     10  C   UNL     1     -54.852 -44.902 -75.913  0.00  0.00    +0.000 A 
ATOM     11  C   UNL     1     -55.266 -46.317 -75.974  0.00  0.00    +0.000 A 
ATOM     12  O   UNL     1     -54.902 -47.133 -75.136  0.00  0.00    +0.000 OA
ATOM     13  C   UNL     1     -56.221 -46.725 -77.057  0.00  0.00    +0.000 A 
ATOM     14  H   UNL     1     -57.539 -43.803 -77.492  0.00  0.00    +0.000 HD
ENDROOT
BRANCH   1  15
ATOM     15  S   UNL     1     -58.381 -45.963 -78.679  0.00  0.00    +0.000 S 
ATOM     16  O   UNL     1     -58.633 -44.550 -79.129  0.00  0.00    +0.000 OA
BRANCH  15  17
ATOM     17  C   UNL     1     -59.938 -46.600 -77.992  0.00  0.00    +0.000 C 
BRANCH  17  21
ATOM     18  C   UNL     1     -63.939 -43.428 -77.607  0.00  0.00    +0.000 C 
ATOM     19  C   UNL     1     -62.871 -44.401 -77.904  0.00  0.00    +0.000 A 
ATOM     20  C   UNL     1     -61.686 -44.750 -77.301  0.00  0.00    +0.000 A 
ATOM     21  C   UNL     1     -61.201 -45.831 -78.071  0.00  0.00    +0.000 A 
ATOM     22  N   UNL     1     -62.014 -46.068 -79.115  0.00  0.00    +0.000 NA
ATOM     23  O   UNL     1     -63.057 -45.173 -79.005  0.00  0.00    +0.000 OA
ENDBRANCH  17  21
ENDBRANCH  15  17
ENDBRANCH   1  15
BRANCH  13  24
ATOM     24  C   UNL     1     -55.856 -48.006 -77.726  0.00  0.00    +0.000 C 
ATOM     25  O   UNL     1     -55.159 -48.006 -78.726  0.00  0.00    +0.000 OA
BRANCH  24  26
ATOM     26  C   UNL     1     -56.315 -49.275 -77.131  0.00  0.00    +0.000 C 
ATOM     27  C   UNL     1     -56.534 -50.473 -78.018  0.00  0.00    +0.000 C 
ATOM     28  C   UNL     1     -57.709 -49.798 -77.379  0.00  0.00    +0.000 C 
ENDBRANCH  24  26
ENDBRANCH  13  24
TORSDOF 5
ENDMDL
MODEL 17
REMARK VINA RESULT:    -5.372     16.785     19.147
REMARK INTER + INTRA:          -7.900
REMARK INTER:                  -7.005
REMARK INTRA:                  -0.895
REMARK UNBOUND:                -0.957
REMARK  Name = 
REMARK  6 active torsions:
REMARK  status: ('A' for Active; 'I' for Inactive)
REMARK    1  A    between atoms: C_1  and  C_2
REMARK    2  A    between atoms: C_4  and  C_5
REMARK    3  A    between atoms: C_5  and  S_6
REMARK    4  A    between atoms: S_6  and  C_8
REMARK    5  A    between atoms: C_20  and  C_21
REMARK    6  A    between atoms: C_21  and  C_23
REMARK                            x       y       z     vdW  Elec       q    Type
REMARK                         _______ _______ _______ _____ _____    ______ ____
ROOT
ATOM      1  C   UNL     1     -47.123 -25.506 -64.205  0.00  0.00    +0.000 A 
ATOM      2  N   UNL     1     -47.965 -24.680 -64.975  0.00  0.00    +0.000 N 
ATOM      3  C   UNL     1     -49.043 -23.980 -64.367  0.00  0.00    +0.000 A 
ATOM      4  C   UNL     1     -49.666 -22.866 -64.960  0.00  0.00    +0.000 A 
ATOM      5 BR   UNL     1     -48.986 -22.097 -66.555  0.00  0.00    +0.000 Br
ATOM      6  C   UNL     1     -50.796 -22.273 -64.380  0.00  0.00    +0.000 A 
ATOM      7  C   UNL     1     -51.301 -22.776 -63.175  0.00  0.00    +0.000 A 
ATOM      8  C   UNL     1     -50.699 -23.878 -62.568  0.00  0.00    +0.000 A 
ATOM      9 CL   UNL     1     -51.353 -24.377 -61.049  0.00  0.00    +0.000 Cl
ATOM     10  C   UNL     1     -49.590 -24.485 -63.177  0.00  0.00    +0.000 A 
ATOM     11  C   UNL     1     -48.942 -25.703 -62.655  0.00  0.00    +0.000 A 
ATOM     12  O   UNL     1     -49.570 -26.553 -62.036  0.00  0.00    +0.000 OA
ATOM     13  C   UNL     1     -47.492 -25.919 -62.973  0.00  0.00    +0.000 A 
ATOM     14  H   UNL     1     -47.440 -24.119 -65.660  0.00  0.00    +0.000 HD
ENDROOT
BRANCH   1  15
ATOM     15  S   UNL     1     -45.424 -25.547 -64.834  0.00  0.00    +0.000 S 
ATOM     16  O   UNL     1     -44.682 -24.577 -63.956  0.00  0.00    +0.000 OA
BRANCH  15  17
ATOM     17  C   UNL     1     -45.387 -24.887 -66.526  0.00  0.00    +0.000 C 
BRANCH  17  21
ATOM     18  C   UNL     1     -44.776 -27.146 -71.080  0.00  0.00    +0.000 C 
ATOM     19  C   UNL     1     -44.879 -26.678 -69.686  0.00  0.00    +0.000 A 
ATOM     20  C   UNL     1     -45.203 -25.482 -69.089  0.00  0.00    +0.000 A 
ATOM     21  C   UNL     1     -45.197 -25.764 -67.705  0.00  0.00    +0.000 A 
ATOM     22  N   UNL     1     -44.822 -27.036 -67.484  0.00  0.00    +0.000 NA
ATOM     23  O   UNL     1     -44.626 -27.603 -68.726  0.00  0.00    +0.000 OA
ENDBRANCH  17  21
ENDBRANCH  15  17
ENDBRANCH   1  15
BRANCH  13  24
ATOM     24  C   UNL     1     -46.688 -26.391 -61.809  0.00  0.00    +0.000 C 
ATOM     25  O   UNL     1     -46.519 -25.671 -60.840  0.00  0.00    +0.000 OA
BRANCH  24  26
ATOM     26  C   UNL     1     -46.140 -27.760 -61.831  0.00  0.00    +0.000 C 
ATOM     27  C   UNL     1     -46.813 -28.814 -62.673  0.00  0.00    +0.000 C 
ATOM     28  C   UNL     1     -46.874 -28.908 -61.179  0.00  0.00    +0.000 C 
ENDBRANCH  24  26
ENDBRANCH  13  24
TORSDOF 5
ENDMDL
MODEL 18
REMARK VINA RESULT:    -5.354     21.519     25.184
REMARK INTER + INTRA:          -7.876
REMARK INTER:                  -7.011
REMARK INTRA:                  -0.865
REMARK UNBOUND:                -0.957
REMARK  Name = 
REMARK  6 active torsions:
REMARK  status: ('A' for Active; 'I' for Inactive)
REMARK    1  A    between atoms: C_1  and  C_2
REMARK    2  A    between atoms: C_4  and  C_5
REMARK    3  A    between atoms: C_5  and  S_6
REMARK    4  A    between atoms: S_6  and  C_8
REMARK    5  A    between atoms: C_20  and  C_21
REMARK    6  A    between atoms: C_21  and  C_23
REMARK                            x       y       z     vdW  Elec       q    Type
REMARK                         _______ _______ _______ _____ _____    ______ ____
ROOT
ATOM      1  C   UNL     1     -67.463 -34.863 -83.766  0.00  0.00    +0.000 A 
ATOM      2  N   UNL     1     -68.281 -33.819 -83.291  0.00  0.00    +0.000 N 
ATOM      3  C   UNL     1     -68.747 -32.806 -84.174  0.00  0.00    +0.000 A 
ATOM      4  C   UNL     1     -69.848 -31.980 -83.883  0.00  0.00    +0.000 A 
ATOM      5 BR   UNL     1     -70.918 -32.282 -82.346  0.00  0.00    +0.000 Br
ATOM      6  C   UNL     1     -70.206 -30.922 -84.730  0.00  0.00    +0.000 A 
ATOM      7  C   UNL     1     -69.475 -30.696 -85.902  0.00  0.00    +0.000 A 
ATOM      8  C   UNL     1     -68.380 -31.503 -86.213  0.00  0.00    +0.000 A 
ATOM      9 CL   UNL     1     -67.589 -31.188 -87.716  0.00  0.00    +0.000 Cl
ATOM     10  C   UNL     1     -68.010 -32.536 -85.339  0.00  0.00    +0.000 A 
ATOM     11  C   UNL     1     -66.819 -33.384 -85.540  0.00  0.00    +0.000 A 
ATOM     12  O   UNL     1     -65.817 -32.965 -86.106  0.00  0.00    +0.000 OA
ATOM     13  C   UNL     1     -66.834 -34.766 -84.957  0.00  0.00    +0.000 A 
ATOM     14  H   UNL     1     -68.996 -34.153 -82.631  0.00  0.00    +0.000 HD
ENDROOT
BRANCH   1  15
ATOM     15  S   UNL     1     -67.726 -36.415 -82.868  0.00  0.00    +0.000 S 
ATOM     16  O   UNL     1     -69.222 -36.543 -82.782  0.00  0.00    +0.000 OA
BRANCH  15  17
ATOM     17  C   UNL     1     -67.095 -36.249 -81.172  0.00  0.00    +0.000 C 
BRANCH  17  21
ATOM     18  C   UNL     1     -62.461 -37.038 -79.142  0.00  0.00    +0.000 C 
ATOM     19  C   UNL     1     -63.731 -36.938 -79.885  0.00  0.00    +0.000 A 
ATOM     20  C   UNL     1     -64.952 -36.357 -79.639  0.00  0.00    +0.000 A 
ATOM     21  C   UNL     1     -65.690 -36.564 -80.825  0.00  0.00    +0.000 A 
ATOM     22  N   UNL     1     -64.976 -37.290 -81.704  0.00  0.00    +0.000 NA
ATOM     23  O   UNL     1     -63.752 -37.520 -81.111  0.00  0.00    +0.000 OA
ENDBRANCH  17  21
ENDBRANCH  15  17
ENDBRANCH   1  15
BRANCH  13  24
ATOM     24  C   UNL     1     -66.303 -35.810 -85.879  0.00  0.00    +0.000 C 
ATOM     25  O   UNL     1     -65.257 -36.384 -85.629  0.00  0.00    +0.000 OA
BRANCH  24  26
ATOM     26  C   UNL     1     -67.089 -36.171 -87.074  0.00  0.00    +0.000 C 
ATOM     27  C   UNL     1     -66.447 -36.989 -88.165  0.00  0.00    +0.000 C 
ATOM     28  C   UNL     1     -66.794 -35.554 -88.421  0.00  0.00    +0.000 C 
ENDBRANCH  24  26
ENDBRANCH  13  24
TORSDOF 5
ENDMDL
MODEL 19
REMARK VINA RESULT:    -5.303      9.580     12.840
REMARK INTER + INTRA:          -7.811
REMARK INTER:                  -6.761
REMARK INTRA:                  -1.050
REMARK UNBOUND:                -0.957
REMARK  Name = 
REMARK  6 active torsions:
REMARK  status: ('A' for Active; 'I' for Inactive)
REMARK    1  A    between atoms: C_1  and  C_2
REMARK    2  A    between atoms: C_4  and  C_5
REMARK    3  A    between atoms: C_5  and  S_6
REMARK    4  A    between atoms: S_6  and  C_8
REMARK    5  A    between atoms: C_20  and  C_21
REMARK    6  A    between atoms: C_21  and  C_23
REMARK                            x       y       z     vdW  Elec       q    Type
REMARK                         _______ _______ _______ _____ _____    ______ ____
ROOT
ATOM      1  C   UNL     1     -65.837 -41.415 -69.993  0.00  0.00    +0.000 A 
ATOM      2  N   UNL     1     -64.535 -41.536 -70.518  0.00  0.00    +0.000 N 
ATOM      3  C   UNL     1     -63.416 -41.677 -69.652  0.00  0.00    +0.000 A 
ATOM      4  C   UNL     1     -62.174 -42.184 -70.079  0.00  0.00    +0.000 A 
ATOM      5 BR   UNL     1     -61.953 -42.892 -71.825  0.00  0.00    +0.000 Br
ATOM      6  C   UNL     1     -61.066 -42.204 -69.221  0.00  0.00    +0.000 A 
ATOM      7  C   UNL     1     -61.198 -41.739 -67.907  0.00  0.00    +0.000 A 
ATOM      8  C   UNL     1     -62.420 -41.234 -67.461  0.00  0.00    +0.000 A 
ATOM      9 CL   UNL     1     -62.499 -40.753 -65.804  0.00  0.00    +0.000 Cl
ATOM     10  C   UNL     1     -63.512 -41.186 -68.340  0.00  0.00    +0.000 A 
ATOM     11  C   UNL     1     -64.816 -40.592 -67.986  0.00  0.00    +0.000 A 
ATOM     12  O   UNL     1     -64.908 -39.668 -67.187  0.00  0.00    +0.000 OA
ATOM     13  C   UNL     1     -66.036 -41.101 -68.694  0.00  0.00    +0.000 A 
ATOM     14  H   UNL     1     -64.503 -42.153 -71.341  0.00  0.00    +0.000 HD
ENDROOT
BRANCH   1  15
ATOM     15  S   UNL     1     -67.094 -42.142 -71.076  0.00  0.00    +0.000 S 
ATOM     16  O   UNL     1     -66.343 -43.172 -71.875  0.00  0.00    +0.000 OA
BRANCH  15  17
ATOM     17  C   UNL     1     -67.694 -40.883 -72.241  0.00  0.00    +0.000 C 
BRANCH  17  21
ATOM     18  C   UNL     1     -70.171 -36.889 -70.208  0.00  0.00    +0.000 C 
ATOM     19  C   UNL     1     -69.603 -38.030 -70.949  0.00  0.00    +0.000 A 
ATOM     20  C   UNL     1     -68.485 -38.817 -70.804  0.00  0.00    +0.000 A 
ATOM     21  C   UNL     1     -68.605 -39.795 -71.816  0.00  0.00    +0.000 A 
ATOM     22  N   UNL     1     -69.696 -39.564 -72.568  0.00  0.00    +0.000 NA
ATOM     23  O   UNL     1     -70.316 -38.460 -72.020  0.00  0.00    +0.000 OA
ENDBRANCH  17  21
ENDBRANCH  15  17
ENDBRANCH   1  15
BRANCH  13  24
ATOM     24  C   UNL     1     -67.201 -41.329 -67.793  0.00  0.00    +0.000 C 
ATOM     25  O   UNL     1     -68.096 -40.504 -67.716  0.00  0.00    +0.000 OA
BRANCH  24  26
ATOM     26  C   UNL     1     -67.276 -42.590 -67.032  0.00  0.00    +0.000 C 
ATOM     27  C   UNL     1     -66.612 -43.827 -67.581  0.00  0.00    +0.000 C 
ATOM     28  C   UNL     1     -68.107 -43.752 -67.522  0.00  0.00    +0.000 C 
ENDBRANCH  24  26
ENDBRANCH  13  24
TORSDOF 5
ENDMDL
MODEL 20
REMARK VINA RESULT:    -5.169     11.032     13.839
REMARK INTER + INTRA:          -7.637
REMARK INTER:                  -6.531
REMARK INTRA:                  -1.106
REMARK UNBOUND:                -0.957
REMARK  Name = 
REMARK  6 active torsions:
REMARK  status: ('A' for Active; 'I' for Inactive)
REMARK    1  A    between atoms: C_1  and  C_2
REMARK    2  A    between atoms: C_4  and  C_5
REMARK    3  A    between atoms: C_5  and  S_6
REMARK    4  A    between atoms: S_6  and  C_8
REMARK    5  A    between atoms: C_20  and  C_21
REMARK    6  A    between atoms: C_21  and  C_23
REMARK                            x       y       z     vdW  Elec       q    Type
REMARK                         _______ _______ _______ _____ _____    ______ ____
ROOT
ATOM      1  C   UNL     1     -65.837 -42.846 -69.683  0.00  0.00    +0.000 A 
ATOM      2  N   UNL     1     -67.158 -42.816 -70.172  0.00  0.00    +0.000 N 
ATOM      3  C   UNL     1     -67.474 -43.384 -71.437  0.00  0.00    +0.000 A 
ATOM      4  C   UNL     1     -68.783 -43.739 -71.813  0.00  0.00    +0.000 A 
ATOM      5 BR   UNL     1     -70.217 -43.649 -70.574  0.00  0.00    +0.000 Br
ATOM      6  C   UNL     1     -69.068 -44.194 -73.108  0.00  0.00    +0.000 A 
ATOM      7  C   UNL     1     -68.031 -44.325 -74.039  0.00  0.00    +0.000 A 
ATOM      8  C   UNL     1     -66.725 -43.981 -73.689  0.00  0.00    +0.000 A 
ATOM      9 CL   UNL     1     -65.508 -44.247 -74.884  0.00  0.00    +0.000 Cl
ATOM     10  C   UNL     1     -66.459 -43.493 -72.400  0.00  0.00    +0.000 A 
ATOM     11  C   UNL     1     -65.129 -43.025 -71.967  0.00  0.00    +0.000 A 
ATOM     12  O   UNL     1     -64.334 -42.525 -72.753  0.00  0.00    +0.000 OA
ATOM     13  C   UNL     1     -64.797 -43.103 -70.506  0.00  0.00    +0.000 A 
ATOM     14  H   UNL     1     -67.850 -43.024 -69.439  0.00  0.00    +0.000 HD
ENDROOT
BRANCH   1  15
ATOM     15  S   UNL     1     -65.767 -42.961 -67.876  0.00  0.00    +0.000 S 
ATOM     16  O   UNL     1     -67.070 -43.609 -67.496  0.00  0.00    +0.000 OA
BRANCH  15  17
ATOM     17  C   UNL     1     -65.763 -41.290 -67.162  0.00  0.00    +0.000 C 
BRANCH  17  21
ATOM     18  C   UNL     1     -69.668 -38.434 -65.487  0.00  0.00    +0.000 C 
ATOM     19  C   UNL     1     -68.646 -39.259 -66.156  0.00  0.00    +0.000 A 
ATOM     20  C   UNL     1     -67.414 -39.753 -65.796  0.00  0.00    +0.000 A 
ATOM     21  C   UNL     1     -67.017 -40.550 -66.893  0.00  0.00    +0.000 A 
ATOM     22  N   UNL     1     -67.927 -40.481 -67.880  0.00  0.00    +0.000 NA
ATOM     23  O   UNL     1     -68.943 -39.673 -67.414  0.00  0.00    +0.000 OA
ENDBRANCH  17  21
ENDBRANCH  15  17
ENDBRANCH   1  15
BRANCH  13  24
ATOM     24  C   UNL     1     -63.425 -43.618 -70.230  0.00  0.00    +0.000 C 
ATOM     25  O   UNL     1     -63.132 -44.771 -70.494  0.00  0.00    +0.000 OA
BRANCH  24  26
ATOM     26  C   UNL     1     -62.417 -42.695 -69.676  0.00  0.00    +0.000 C 
ATOM     27  C   UNL     1     -62.528 -41.219 -69.961  0.00  0.00    +0.000 C 
ATOM     28  C   UNL     1     -61.410 -42.010 -70.568  0.00  0.00    +0.000 C 
ENDBRANCH  24  26
ENDBRANCH  13  24
TORSDOF 5
ENDMDL
