REMARK VINA RESULT:    -5.566     16.706     18.802
REMARK INTER + INTRA:          -8.135
REMARK INTER:                  -7.315
REMARK INTRA:                  -0.820
REMARK UNBOUND:                -0.942
REMARK  Name = 
REMARK  8 active torsions:
REMARK  status: ('A' for Active; 'I' for Inactive)
REMARK    1  A    between atoms: C_1  and  C_2
REMARK    2  A    between atoms: C_4  and  C_5
REMARK    3  A    between atoms: C_5  and  S_6
REMARK    4  A    between atoms: S_6  and  C_8
REMARK    5  A    between atoms: C_20  and  C_21
REMARK    6  A    between atoms: C_21  and  C_23
REMARK    7  A    between atoms: C_23  and  C_24
REMARK    8  A    between atoms: C_23  and  C_25
REMARK                            x       y       z     vdW  Elec       q    Type
REMARK                         _______ _______ _______ _____ _____    ______ ____
ROOT
ATOM      1  C   UNL     1     -48.139 -25.915 -62.387  0.00  0.00    +0.000 A 
ATOM      2  N   UNL     1     -47.951 -25.637 -63.739  0.00  0.00    +0.000 N 
ATOM      3  C   UNL     1     -48.520 -24.498 -64.348  0.00  0.00    +0.000 A 
ATOM      4  C   UNL     1     -48.045 -23.989 -65.572  0.00  0.00    +0.000 A 
ATOM      5 CL   UNL     1     -46.626 -24.645 -66.310  0.00  0.00    +0.000 Cl
ATOM      6  C   UNL     1     -48.688 -22.927 -66.208  0.00  0.00    +0.000 A 
ATOM      7  C   UNL     1     -49.820 -22.356 -65.621  0.00  0.00    +0.000 A 
ATOM      8  C   UNL     1     -50.298 -22.838 -64.396  0.00  0.00    +0.000 A 
ATOM      9 CL   UNL     1     -51.661 -22.009 -63.738  0.00  0.00    +0.000 Cl
ATOM     10  C   UNL     1     -49.655 -23.916 -63.768  0.00  0.00    +0.000 A 
ATOM     11  C   UNL     1     -50.120 -24.560 -62.513  0.00  0.00    +0.000 A 
ATOM     12  O   UNL     1     -51.312 -24.529 -62.231  0.00  0.00    +0.000 OA
ATOM     13  C   UNL     1     -49.120 -25.321 -61.651  0.00  0.00    +0.000 A 
ATOM     14  H   UNL     1     -47.021 -25.904 -64.087  0.00  0.00    +0.000 HD
ENDROOT
BRANCH   1  15
ATOM     15  S   UNL     1     -46.773 -26.952 -61.726  0.00  0.00    +0.000 S 
ATOM     16  O   UNL     1     -46.343 -27.772 -62.912  0.00  0.00    +0.000 OA
BRANCH  15  17
ATOM     17  C   UNL     1     -47.645 -28.080 -60.564  0.00  0.00    +0.000 C 
BRANCH  17  21
ATOM     18  C   UNL     1     -49.008 -32.508 -62.859  0.00  0.00    +0.000 C 
ATOM     19  C   UNL     1     -48.821 -31.195 -62.207  0.00  0.00    +0.000 A 
ATOM     20  C   UNL     1     -47.775 -30.557 -61.581  0.00  0.00    +0.000 A 
ATOM     21  C   UNL     1     -48.283 -29.276 -61.224  0.00  0.00    +0.000 A 
ATOM     22  N   UNL     1     -49.572 -29.178 -61.590  0.00  0.00    +0.000 NA
ATOM     23  O   UNL     1     -49.900 -30.370 -62.206  0.00  0.00    +0.000 OA
ENDBRANCH  17  21
ENDBRANCH  15  17
ENDBRANCH   1  15
BRANCH  13  24
ATOM     24  C   UNL     1     -49.391 -25.257 -60.161  0.00  0.00    +0.000 C 
ATOM     25  O   UNL     1     -50.215 -26.028 -59.652  0.00  0.00    +0.000 OA
BRANCH  24  26
ATOM     26  C   UNL     1     -48.799 -24.176 -59.277  0.00  0.00    +0.000 C 
ATOM     27  C   UNL     1     -49.904 -23.271 -58.764  0.00  0.00    +0.000 C 
ATOM     28  C   UNL     1     -47.931 -24.766 -58.172  0.00  0.00    +0.000 C 
ENDBRANCH  24  26
ENDBRANCH  13  24
TORSDOF 5
