REMARK VINA RESULT:    -6.146      3.717      7.294
REMARK INTER + INTRA:          -8.813
REMARK INTER:                  -7.995
REMARK INTRA:                  -0.817
REMARK UNBOUND:                -0.870
REMARK  Name = 
REMARK  8 active torsions:
REMARK  status: ('A' for Active; 'I' for Inactive)
REMARK    1  A    between atoms: C_1  and  C_2
REMARK    2  A    between atoms: C_4  and  C_5
REMARK    3  A    between atoms: C_5  and  S_6
REMARK    4  A    between atoms: S_6  and  C_8
REMARK    5  A    between atoms: C_20  and  C_21
REMARK    6  A    between atoms: C_21  and  C_23
REMARK    7  A    between atoms: C_23  and  C_24
REMARK    8  A    between atoms: C_23  and  C_25
REMARK                            x       y       z     vdW  Elec       q    Type
REMARK                         _______ _______ _______ _____ _____    ______ ____
ROOT
ATOM      1  C   UNL     1     -55.284 -41.938 -77.854  0.00  0.00    +0.000 A 
ATOM      2  N   UNL     1     -56.571 -42.434 -77.672  0.00  0.00    +0.000 N 
ATOM      3  C   UNL     1     -57.220 -42.364 -76.424  0.00  0.00    +0.000 A 
ATOM      4  C   UNL     1     -58.619 -42.461 -76.300  0.00  0.00    +0.000 A 
ATOM      5 BR   UNL     1     -59.731 -42.531 -77.835  0.00  0.00    +0.000 Br
ATOM      6  C   UNL     1     -59.231 -42.467 -75.044  0.00  0.00    +0.000 A 
ATOM      7  C   UNL     1     -58.455 -42.371 -73.892  0.00  0.00    +0.000 A 
ATOM      8  C   UNL     1     -57.056 -42.265 -73.994  0.00  0.00    +0.000 A 
ATOM      9 CL   UNL     1     -56.207 -42.079 -72.502  0.00  0.00    +0.000 Cl
ATOM     10  C   UNL     1     -56.438 -42.266 -75.261  0.00  0.00    +0.000 A 
ATOM     11  C   UNL     1     -54.969 -42.193 -75.474  0.00  0.00    +0.000 A 
ATOM     12  O   UNL     1     -54.201 -42.553 -74.587  0.00  0.00    +0.000 OA
ATOM     13  C   UNL     1     -54.451 -41.684 -76.816  0.00  0.00    +0.000 A 
ATOM     14  H   UNL     1     -57.175 -42.344 -78.500  0.00  0.00    +0.000 HD
ENDROOT
BRANCH   1  15
ATOM     15  S   UNL     1     -54.979 -41.487 -79.604  0.00  0.00    +0.000 S 
ATOM     16  O   UNL     1     -54.806 -39.993 -79.565  0.00  0.00    +0.000 OA
BRANCH  15  17
ATOM     17  C   UNL     1     -56.569 -41.863 -80.416  0.00  0.00    +0.000 C 
BRANCH  17  21
ATOM     18  C   UNL     1     -56.118 -39.982 -85.218  0.00  0.00    +0.000 C 
ATOM     19  C   UNL     1     -56.451 -40.529 -83.885  0.00  0.00    +0.000 A 
ATOM     20  C   UNL     1     -55.722 -40.979 -82.807  0.00  0.00    +0.000 A 
ATOM     21  C   UNL     1     -56.693 -41.339 -81.828  0.00  0.00    +0.000 A 
ATOM     22  N   UNL     1     -57.929 -41.131 -82.314  0.00  0.00    +0.000 NA
ATOM     23  O   UNL     1     -57.773 -40.625 -83.590  0.00  0.00    +0.000 OA
ENDBRANCH  17  21
ENDBRANCH  15  17
ENDBRANCH   1  15
BRANCH  13  24
ATOM     24  C   UNL     1     -53.130 -40.948 -76.800  0.00  0.00    +0.000 C 
ATOM     25  O   UNL     1     -53.105 -39.723 -76.689  0.00  0.00    +0.000 OA
BRANCH  24  26
ATOM     26  C   UNL     1     -51.818 -41.711 -76.988  0.00  0.00    +0.000 C 
ATOM     27  C   UNL     1     -51.404 -41.771 -78.456  0.00  0.00    +0.000 C 
ATOM     28  C   UNL     1     -50.687 -41.122 -76.141  0.00  0.00    +0.000 C 
ENDBRANCH  24  26
ENDBRANCH  13  24
TORSDOF 5
