REMARK VINA RESULT:    -6.755      4.639      8.125
REMARK INTER + INTRA:          -9.654
REMARK INTER:                  -8.812
REMARK INTRA:                  -0.842
REMARK UNBOUND:                -0.925
REMARK  Name = 
REMARK  8 active torsions:
REMARK  status: ('A' for Active; 'I' for Inactive)
REMARK    1  A    between atoms: C_1  and  C_2
REMARK    2  A    between atoms: C_4  and  C_5
REMARK    3  A    between atoms: C_5  and  S_6
REMARK    4  A    between atoms: S_6  and  C_8
REMARK    5  A    between atoms: C_20  and  C_21
REMARK    6  A    between atoms: C_21  and  C_23
REMARK    7  A    between atoms: C_23  and  C_24
REMARK    8  A    between atoms: C_23  and  C_25
REMARK                            x       y       z     vdW  Elec       q    Type
REMARK                         _______ _______ _______ _____ _____    ______ ____
ROOT
ATOM      1  C   UNL     1     -53.496 -42.213 -78.816  0.00  0.00    +0.000 A 
ATOM      2  N   UNL     1     -54.691 -42.922 -78.913  0.00  0.00    +0.000 N 
ATOM      3  C   UNL     1     -55.593 -43.004 -77.832  0.00  0.00    +0.000 A 
ATOM      4  C   UNL     1     -56.943 -43.365 -78.010  0.00  0.00    +0.000 A 
ATOM      5 CL   UNL     1     -57.601 -43.567 -79.596  0.00  0.00    +0.000 Cl
ATOM      6  C   UNL     1     -57.791 -43.542 -76.917  0.00  0.00    +0.000 A 
ATOM      7  C   UNL     1     -57.297 -43.356 -75.624  0.00  0.00    +0.000 A 
ATOM      8  C   UNL     1     -55.961 -42.983 -75.426  0.00  0.00    +0.000 A 
ATOM      9 CL   UNL     1     -55.486 -42.718 -73.789  0.00  0.00    +0.000 Cl
ATOM     10  C   UNL     1     -55.109 -42.820 -76.529  0.00  0.00    +0.000 A 
ATOM     11  C   UNL     1     -53.661 -42.505 -76.437  0.00  0.00    +0.000 A 
ATOM     12  O   UNL     1     -53.036 -42.851 -75.441  0.00  0.00    +0.000 OA
ATOM     13  C   UNL     1     -52.965 -41.840 -77.617  0.00  0.00    +0.000 A 
ATOM     14  H   UNL     1     -55.123 -42.872 -79.845  0.00  0.00    +0.000 HD
ENDROOT
BRANCH   1  15
ATOM     15  S   UNL     1     -52.912 -41.665 -80.471  0.00  0.00    +0.000 S 
ATOM     16  O   UNL     1     -53.920 -42.258 -81.418  0.00  0.00    +0.000 OA
BRANCH  15  17
ATOM     17  C   UNL     1     -51.342 -42.599 -80.680  0.00  0.00    +0.000 C 
BRANCH  17  21
ATOM     18  C   UNL     1     -49.936 -42.952 -85.643  0.00  0.00    +0.000 C 
ATOM     19  C   UNL     1     -50.392 -43.051 -84.240  0.00  0.00    +0.000 A 
ATOM     20  C   UNL     1     -50.312 -42.244 -83.129  0.00  0.00    +0.000 A 
ATOM     21  C   UNL     1     -51.015 -42.947 -82.111  0.00  0.00    +0.000 A 
ATOM     22  N   UNL     1     -51.458 -44.123 -82.588  0.00  0.00    +0.000 NA
ATOM     23  O   UNL     1     -51.074 -44.180 -83.914  0.00  0.00    +0.000 OA
ENDBRANCH  17  21
ENDBRANCH  15  17
ENDBRANCH   1  15
BRANCH  13  24
ATOM     24  C   UNL     1     -51.847 -40.889 -77.241  0.00  0.00    +0.000 C 
ATOM     25  O   UNL     1     -50.668 -41.240 -77.381  0.00  0.00    +0.000 OA
BRANCH  24  26
ATOM     26  C   UNL     1     -52.109 -39.564 -76.550  0.00  0.00    +0.000 C 
ATOM     27  C   UNL     1     -50.809 -39.009 -75.998  0.00  0.00    +0.000 C 
ATOM     28  C   UNL     1     -52.850 -38.592 -77.460  0.00  0.00    +0.000 C 
ENDBRANCH  24  26
ENDBRANCH  13  24
TORSDOF 5
