REMARK VINA RESULT:    -5.584      8.731     12.478
REMARK INTER + INTRA:          -8.111
REMARK INTER:                  -7.333
REMARK INTRA:                  -0.778
REMARK UNBOUND:                -0.894
REMARK  Name = 
REMARK  8 active torsions:
REMARK  status: ('A' for Active; 'I' for Inactive)
REMARK    1  A    between atoms: C_1  and  C_2
REMARK    2  A    between atoms: C_4  and  C_5
REMARK    3  A    between atoms: C_5  and  S_6
REMARK    4  A    between atoms: S_6  and  C_8
REMARK    5  A    between atoms: C_20  and  C_21
REMARK    6  A    between atoms: C_21  and  C_23
REMARK    7  A    between atoms: C_23  and  C_24
REMARK    8  A    between atoms: C_23  and  C_25
REMARK                            x       y       z     vdW  Elec       q    Type
REMARK                         _______ _______ _______ _____ _____    ______ ____
ROOT
ATOM      1  C   UNL     1     -64.668 -38.594 -80.864  0.00  0.00    +0.000 A 
ATOM      2  N   UNL     1     -65.591 -39.590 -80.554  0.00  0.00    +0.000 N 
ATOM      3  C   UNL     1     -65.210 -40.768 -79.876  0.00  0.00    +0.000 A 
ATOM      4  C   UNL     1     -66.147 -41.588 -79.218  0.00  0.00    +0.000 A 
ATOM      5 CL   UNL     1     -67.799 -41.101 -79.073  0.00  0.00    +0.000 Cl
ATOM      6  C   UNL     1     -65.764 -42.800 -78.644  0.00  0.00    +0.000 A 
ATOM      7  C   UNL     1     -64.430 -43.207 -78.717  0.00  0.00    +0.000 A 
ATOM      8  C   UNL     1     -63.480 -42.398 -79.354  0.00  0.00    +0.000 A 
ATOM      9 CL   UNL     1     -61.854 -42.974 -79.322  0.00  0.00    +0.000 Cl
ATOM     10  C   UNL     1     -63.874 -41.186 -79.942  0.00  0.00    +0.000 A 
ATOM     11  C   UNL     1     -62.973 -40.289 -80.710  0.00  0.00    +0.000 A 
ATOM     12  O   UNL     1     -62.002 -40.767 -81.285  0.00  0.00    +0.000 OA
ATOM     13  C   UNL     1     -63.323 -38.812 -80.839  0.00  0.00    +0.000 A 
ATOM     14  H   UNL     1     -66.523 -39.228 -80.317  0.00  0.00    +0.000 HD
ENDROOT
BRANCH   1  15
ATOM     15  S   UNL     1     -65.492 -36.961 -81.049  0.00  0.00    +0.000 S 
ATOM     16  O   UNL     1     -66.433 -36.902 -79.876  0.00  0.00    +0.000 OA
BRANCH  15  17
ATOM     17  C   UNL     1     -66.512 -37.188 -82.562  0.00  0.00    +0.000 C 
BRANCH  17  21
ATOM     18  C   UNL     1     -64.422 -34.542 -86.482  0.00  0.00    +0.000 C 
ATOM     19  C   UNL     1     -65.188 -35.181 -85.391  0.00  0.00    +0.000 A 
ATOM     20  C   UNL     1     -65.010 -36.286 -84.591  0.00  0.00    +0.000 A 
ATOM     21  C   UNL     1     -66.127 -36.287 -83.709  0.00  0.00    +0.000 A 
ATOM     22  N   UNL     1     -66.940 -35.256 -83.998  0.00  0.00    +0.000 NA
ATOM     23  O   UNL     1     -66.348 -34.568 -85.040  0.00  0.00    +0.000 OA
ENDBRANCH  17  21
ENDBRANCH  15  17
ENDBRANCH   1  15
BRANCH  13  24
ATOM     24  C   UNL     1     -62.130 -37.880 -80.895  0.00  0.00    +0.000 C 
ATOM     25  O   UNL     1     -61.623 -37.594 -81.987  0.00  0.00    +0.000 OA
BRANCH  24  26
ATOM     26  C   UNL     1     -61.427 -37.390 -79.643  0.00  0.00    +0.000 C 
ATOM     27  C   UNL     1     -62.398 -36.601 -78.784  0.00  0.00    +0.000 C 
ATOM     28  C   UNL     1     -60.743 -38.531 -78.899  0.00  0.00    +0.000 C 
ENDBRANCH  24  26
ENDBRANCH  13  24
TORSDOF 5
