REMARK VINA RESULT:    -5.031     12.530     14.994
REMARK INTER + INTRA:          -7.290
REMARK INTER:                  -6.382
REMARK INTRA:                  -0.908
REMARK UNBOUND:                -1.082
REMARK  Name = 
REMARK  6 active torsions:
REMARK  status: ('A' for Active; 'I' for Inactive)
REMARK    1  A    between atoms: C_1  and  C_2
REMARK    2  A    between atoms: C_2  and  C_4
REMARK    3  A    between atoms: C_5  and  S_6
REMARK    4  A    between atoms: S_6  and  C_8
REMARK    5  A    between atoms: C_8  and  C_9
REMARK    6  A    between atoms: C_11  and  C_12
REMARK                            x       y       z     vdW  Elec       q    Type
REMARK                         _______ _______ _______ _____ _____    ______ ____
ROOT
ATOM      1  C   UNL     1     -54.804 -41.670 -79.988  0.00  0.00    +0.000 A 
ATOM      2  C   UNL     1     -55.890 -42.214 -79.396  0.00  0.00    +0.000 A 
ATOM      3  N   UNL     1     -55.925 -42.594 -78.069  0.00  0.00    +0.000 N 
ATOM      4  C   UNL     1     -54.787 -42.590 -77.247  0.00  0.00    +0.000 A 
ATOM      5  C   UNL     1     -54.862 -43.030 -75.912  0.00  0.00    +0.000 A 
ATOM      6 BR   UNL     1     -56.482 -43.728 -75.204  0.00  0.00    +0.000 Br
ATOM      7  C   UNL     1     -53.752 -42.977 -75.075  0.00  0.00    +0.000 A 
ATOM      8  C   UNL     1     -52.550 -42.470 -75.560  0.00  0.00    +0.000 A 
ATOM      9  C   UNL     1     -52.455 -42.004 -76.877  0.00  0.00    +0.000 A 
ATOM     10 CL   UNL     1     -50.895 -41.413 -77.336  0.00  0.00    +0.000 Cl
ATOM     11  C   UNL     1     -53.582 -42.045 -77.723  0.00  0.00    +0.000 A 
ATOM     12  C   UNL     1     -53.564 -41.567 -79.134  0.00  0.00    +0.000 A 
ATOM     13  O   UNL     1     -52.530 -41.129 -79.618  0.00  0.00    +0.000 OA
ATOM     14  H   UNL     1     -56.630 -43.296 -77.833  0.00  0.00    +0.000 HD
ENDROOT
BRANCH   1  16
ATOM     15  C   UNL     1     -54.360 -42.201 -82.500  0.00  0.00    +0.000 C 
ATOM     16  C   UNL     1     -54.746 -41.213 -81.424  0.00  0.00    +0.000 C 
ATOM     17  O   UNL     1     -54.993 -40.048 -81.741  0.00  0.00    +0.000 OA
ENDBRANCH   1  16
BRANCH   2  18
ATOM     18  S   UNL     1     -57.375 -42.651 -80.359  0.00  0.00    +0.000 S 
ATOM     19  O   UNL     1     -57.707 -44.039 -79.877  0.00  0.00    +0.000 OA
BRANCH  18  20
ATOM     20  C   UNL     1     -58.588 -41.538 -79.560  0.00  0.00    +0.000 C 
BRANCH  20  21
ATOM     21  C   UNL     1     -59.429 -42.247 -78.550  0.00  0.00    +0.000 A 
ATOM     22  C   UNL     1     -60.639 -42.972 -78.714  0.00  0.00    +0.000 A 
ATOM     23  C   UNL     1     -60.960 -43.402 -77.450  0.00  0.00    +0.000 A 
ATOM     24  C   UNL     1     -62.092 -44.146 -76.867  0.00  0.00    +0.000 C 
ATOM     25  O   UNL     1     -59.986 -43.010 -76.588  0.00  0.00    +0.000 OA
ATOM     26  N   UNL     1     -59.022 -42.293 -77.272  0.00  0.00    +0.000 NA
ENDBRANCH  20  21
ENDBRANCH  18  20
ENDBRANCH   2  18
TORSDOF 4
