REMARK VINA RESULT:    -5.715      3.120      5.667
REMARK INTER + INTRA:          -8.541
REMARK INTER:                  -7.525
REMARK INTRA:                  -1.016
REMARK UNBOUND:                -1.155
REMARK  Name = 
REMARK  6 active torsions:
REMARK  status: ('A' for Active; 'I' for Inactive)
REMARK    1  A    between atoms: C_1  and  C_2
REMARK    2  A    between atoms: C_4  and  C_5
REMARK    3  A    between atoms: C_5  and  S_6
REMARK    4  A    between atoms: S_6  and  C_8
REMARK    5  A    between atoms: C_20  and  C_21
REMARK    6  A    between atoms: C_21  and  C_23
REMARK                            x       y       z     vdW  Elec       q    Type
REMARK                         _______ _______ _______ _____ _____    ______ ____
ROOT
ATOM      1  C   UNL     1     -57.280 -42.239 -62.147  0.00  0.00    +0.000 A 
ATOM      2  N   UNL     1     -55.982 -42.746 -61.943  0.00  0.00    +0.000 N 
ATOM      3  C   UNL     1     -55.552 -43.134 -60.645  0.00  0.00    +0.000 A 
ATOM      4  C   UNL     1     -54.456 -43.988 -60.422  0.00  0.00    +0.000 A 
ATOM      5 BR   UNL     1     -53.570 -44.840 -61.866  0.00  0.00    +0.000 Br
ATOM      6  C   UNL     1     -53.998 -44.257 -59.124  0.00  0.00    +0.000 A 
ATOM      7  C   UNL     1     -54.655 -43.689 -58.027  0.00  0.00    +0.000 A 
ATOM      8  C   UNL     1     -55.745 -42.841 -58.222  0.00  0.00    +0.000 A 
ATOM      9 CL   UNL     1     -56.531 -42.251 -56.802  0.00  0.00    +0.000 Cl
ATOM     10  C   UNL     1     -56.172 -42.551 -59.528  0.00  0.00    +0.000 A 
ATOM     11  C   UNL     1     -57.258 -41.601 -59.836  0.00  0.00    +0.000 A 
ATOM     12  O   UNL     1     -57.494 -40.638 -59.117  0.00  0.00    +0.000 OA
ATOM     13  C   UNL     1     -58.025 -41.799 -61.109  0.00  0.00    +0.000 A 
ATOM     14  H   UNL     1     -55.699 -43.400 -62.686  0.00  0.00    +0.000 HD
ENDROOT
BRANCH   1  15
ATOM     15  S   UNL     1     -57.945 -42.660 -63.779  0.00  0.00    +0.000 S 
ATOM     16  O   UNL     1     -57.399 -44.035 -64.056  0.00  0.00    +0.000 OA
BRANCH  15  17
ATOM     17  C   UNL     1     -57.248 -41.538 -65.026  0.00  0.00    +0.000 C 
BRANCH  17  21
ATOM     18  C   UNL     1     -52.287 -40.274 -65.095  0.00  0.00    +0.000 C 
ATOM     19  C   UNL     1     -53.749 -40.439 -65.006  0.00  0.00    +0.000 A 
ATOM     20  C   UNL     1     -54.632 -41.437 -65.344  0.00  0.00    +0.000 A 
ATOM     21  C   UNL     1     -55.887 -40.970 -64.895  0.00  0.00    +0.000 A 
ATOM     22  N   UNL     1     -55.772 -39.732 -64.381  0.00  0.00    +0.000 NA
ATOM     23  O   UNL     1     -54.434 -39.406 -64.452  0.00  0.00    +0.000 OA
ENDBRANCH  17  21
ENDBRANCH  15  17
ENDBRANCH   1  15
BRANCH  13  24
ATOM     24  C   UNL     1     -59.499 -41.639 -60.951  0.00  0.00    +0.000 C 
ATOM     25  O   UNL     1     -60.125 -42.373 -60.206  0.00  0.00    +0.000 OA
BRANCH  24  26
ATOM     26  C   UNL     1     -60.178 -40.548 -61.675  0.00  0.00    +0.000 C 
ATOM     27  C   UNL     1     -59.436 -39.265 -61.948  0.00  0.00    +0.000 C 
ATOM     28  C   UNL     1     -60.575 -39.271 -60.974  0.00  0.00    +0.000 C 
ENDBRANCH  24  26
ENDBRANCH  13  24
TORSDOF 5
