REMARK VINA RESULT:    -5.846     12.273     14.415
REMARK INTER + INTRA:          -8.480
REMARK INTER:                  -7.120
REMARK INTRA:                  -1.360
REMARK UNBOUND:                -0.925
REMARK  Name = 
REMARK  8 active torsions:
REMARK  status: ('A' for Active; 'I' for Inactive)
REMARK    1  A    between atoms: C_1  and  C_2
REMARK    2  A    between atoms: C_4  and  C_5
REMARK    3  A    between atoms: C_5  and  S_6
REMARK    4  A    between atoms: S_6  and  C_8
REMARK    5  A    between atoms: C_20  and  C_21
REMARK    6  A    between atoms: C_21  and  C_23
REMARK    7  A    between atoms: C_23  and  C_24
REMARK    8  A    between atoms: C_23  and  C_25
REMARK                            x       y       z     vdW  Elec       q    Type
REMARK                         _______ _______ _______ _____ _____    ______ ____
ROOT
ATOM      1  C   UNL     1     -57.040 -39.363 -62.569  0.00  0.00    +0.000 A 
ATOM      2  N   UNL     1     -56.570 -40.577 -63.064  0.00  0.00    +0.000 N 
ATOM      3  C   UNL     1     -55.262 -40.712 -63.576  0.00  0.00    +0.000 A 
ATOM      4  C   UNL     1     -54.639 -41.967 -63.715  0.00  0.00    +0.000 A 
ATOM      5 CL   UNL     1     -55.394 -43.399 -63.109  0.00  0.00    +0.000 Cl
ATOM      6  C   UNL     1     -53.388 -42.087 -64.320  0.00  0.00    +0.000 A 
ATOM      7  C   UNL     1     -52.739 -40.944 -64.793  0.00  0.00    +0.000 A 
ATOM      8  C   UNL     1     -53.335 -39.684 -64.650  0.00  0.00    +0.000 A 
ATOM      9 CL   UNL     1     -52.408 -38.342 -65.212  0.00  0.00    +0.000 Cl
ATOM     10  C   UNL     1     -54.600 -39.572 -64.054  0.00  0.00    +0.000 A 
ATOM     11  C   UNL     1     -55.361 -38.303 -63.922  0.00  0.00    +0.000 A 
ATOM     12  O   UNL     1     -55.173 -37.406 -64.735  0.00  0.00    +0.000 OA
ATOM     13  C   UNL     1     -56.421 -38.178 -62.835  0.00  0.00    +0.000 A 
ATOM     14  H   UNL     1     -56.931 -41.395 -62.556  0.00  0.00    +0.000 HD
ENDROOT
BRANCH   1  15
ATOM     15  S   UNL     1     -58.397 -39.621 -61.356  0.00  0.00    +0.000 S 
ATOM     16  O   UNL     1     -57.852 -39.035 -60.082  0.00  0.00    +0.000 OA
BRANCH  15  17
ATOM     17  C   UNL     1     -58.421 -41.449 -61.155  0.00  0.00    +0.000 C 
BRANCH  17  21
ATOM     18  C   UNL     1     -56.279 -43.138 -56.763  0.00  0.00    +0.000 C 
ATOM     19  C   UNL     1     -56.703 -42.682 -58.103  0.00  0.00    +0.000 A 
ATOM     20  C   UNL     1     -57.909 -42.393 -58.699  0.00  0.00    +0.000 A 
ATOM     21  C   UNL     1     -57.578 -41.957 -60.012  0.00  0.00    +0.000 A 
ATOM     22  N   UNL     1     -56.248 -42.018 -60.193  0.00  0.00    +0.000 NA
ATOM     23  O   UNL     1     -55.708 -42.464 -59.002  0.00  0.00    +0.000 OA
ENDBRANCH  17  21
ENDBRANCH  15  17
ENDBRANCH   1  15
BRANCH  13  24
ATOM     24  C   UNL     1     -56.569 -36.788 -62.251  0.00  0.00    +0.000 C 
ATOM     25  O   UNL     1     -57.488 -36.054 -62.637  0.00  0.00    +0.000 OA
BRANCH  24  26
ATOM     26  C   UNL     1     -55.540 -36.191 -61.310  0.00  0.00    +0.000 C 
ATOM     27  C   UNL     1     -54.842 -37.299 -60.544  0.00  0.00    +0.000 C 
ATOM     28  C   UNL     1     -54.581 -35.259 -62.043  0.00  0.00    +0.000 C 
ENDBRANCH  24  26
ENDBRANCH  13  24
TORSDOF 5
