REMARK VINA RESULT:    -6.497     12.149     13.718
REMARK INTER + INTRA:          -9.306
REMARK INTER:                  -8.661
REMARK INTRA:                  -0.645
REMARK UNBOUND:                -0.910
REMARK  Name = 
REMARK  6 active torsions:
REMARK  status: ('A' for Active; 'I' for Inactive)
REMARK    1  A    between atoms: C_1  and  C_2
REMARK    2  A    between atoms: C_4  and  C_5
REMARK    3  A    between atoms: C_5  and  S_6
REMARK    4  A    between atoms: S_6  and  C_8
REMARK    5  A    between atoms: C_20  and  C_21
REMARK    6  A    between atoms: C_21  and  C_23
REMARK                            x       y       z     vdW  Elec       q    Type
REMARK                         _______ _______ _______ _____ _____    ______ ____
ROOT
ATOM      1  C   UNL     1     -56.311 -42.377 -62.881  0.00  0.00    +0.000 A 
ATOM      2  N   UNL     1     -55.380 -43.432 -62.829  0.00  0.00    +0.000 N 
ATOM      3  C   UNL     1     -54.010 -43.204 -63.136  0.00  0.00    +0.000 A 
ATOM      4  C   UNL     1     -52.979 -44.076 -62.741  0.00  0.00    +0.000 A 
ATOM      5 BR   UNL     1     -53.328 -45.550 -61.598  0.00  0.00    +0.000 Br
ATOM      6  C   UNL     1     -51.656 -43.872 -63.158  0.00  0.00    +0.000 A 
ATOM      7  C   UNL     1     -51.346 -42.768 -63.960  0.00  0.00    +0.000 A 
ATOM      8  C   UNL     1     -52.351 -41.888 -64.363  0.00  0.00    +0.000 A 
ATOM      9 CL   UNL     1     -51.854 -40.519 -65.290  0.00  0.00    +0.000 Cl
ATOM     10  C   UNL     1     -53.677 -42.124 -63.968  0.00  0.00    +0.000 A 
ATOM     11  C   UNL     1     -54.816 -41.299 -64.414  0.00  0.00    +0.000 A 
ATOM     12  O   UNL     1     -54.819 -40.739 -65.504  0.00  0.00    +0.000 OA
ATOM     13  C   UNL     1     -56.022 -41.225 -63.525  0.00  0.00    +0.000 A 
ATOM     14  H   UNL     1     -55.525 -44.040 -62.012  0.00  0.00    +0.000 HD
ENDROOT
BRANCH   1  15
ATOM     15  S   UNL     1     -57.645 -42.566 -61.669  0.00  0.00    +0.000 S 
ATOM     16  O   UNL     1     -56.943 -43.005 -60.413  0.00  0.00    +0.000 OA
BRANCH  15  17
ATOM     17  C   UNL     1     -58.742 -43.920 -62.181  0.00  0.00    +0.000 C 
BRANCH  17  21
ATOM     18  C   UNL     1     -62.781 -46.015 -59.832  0.00  0.00    +0.000 C 
ATOM     19  C   UNL     1     -61.642 -45.250 -60.372  0.00  0.00    +0.000 A 
ATOM     20  C   UNL     1     -60.676 -45.493 -61.319  0.00  0.00    +0.000 A 
ATOM     21  C   UNL     1     -59.951 -44.284 -61.406  0.00  0.00    +0.000 A 
ATOM     22  N   UNL     1     -60.412 -43.393 -60.510  0.00  0.00    +0.000 NA
ATOM     23  O   UNL     1     -61.470 -44.002 -59.868  0.00  0.00    +0.000 OA
ENDBRANCH  17  21
ENDBRANCH  15  17
ENDBRANCH   1  15
BRANCH  13  24
ATOM     24  C   UNL     1     -56.577 -39.849 -63.382  0.00  0.00    +0.000 C 
ATOM     25  O   UNL     1     -57.759 -39.634 -63.583  0.00  0.00    +0.000 OA
BRANCH  24  26
ATOM     26  C   UNL     1     -55.680 -38.762 -62.946  0.00  0.00    +0.000 C 
ATOM     27  C   UNL     1     -56.218 -37.359 -62.829  0.00  0.00    +0.000 C 
ATOM     28  C   UNL     1     -55.229 -37.687 -63.906  0.00  0.00    +0.000 C 
ENDBRANCH  24  26
ENDBRANCH  13  24
TORSDOF 5
