REMARK VINA RESULT:    -5.758     10.597     13.308
REMARK INTER + INTRA:          -8.076
REMARK INTER:                  -7.295
REMARK INTRA:                  -0.781
REMARK UNBOUND:                -0.971
REMARK  Name = 
REMARK  6 active torsions:
REMARK  status: ('A' for Active; 'I' for Inactive)
REMARK    1  A    between atoms: C_1  and  C_2
REMARK    2  A    between atoms: C_2  and  C_4
REMARK    3  A    between atoms: C_5  and  S_6
REMARK    4  A    between atoms: S_6  and  C_8
REMARK    5  A    between atoms: C_8  and  C_9
REMARK    6  A    between atoms: C_11  and  C_12
REMARK                            x       y       z     vdW  Elec       q    Type
REMARK                         _______ _______ _______ _____ _____    ______ ____
ROOT
ATOM      1  C   UNL     1     -55.698 -40.572 -63.887  0.00  0.00    +0.000 A 
ATOM      2  C   UNL     1     -57.006 -40.835 -63.655  0.00  0.00    +0.000 A 
ATOM      3  N   UNL     1     -57.888 -39.903 -63.137  0.00  0.00    +0.000 N 
ATOM      4  C   UNL     1     -57.460 -38.670 -62.610  0.00  0.00    +0.000 A 
ATOM      5  C   UNL     1     -58.371 -37.792 -61.993  0.00  0.00    +0.000 A 
ATOM      6 BR   UNL     1     -60.200 -38.268 -61.789  0.00  0.00    +0.000 Br
ATOM      7  C   UNL     1     -57.960 -36.553 -61.507  0.00  0.00    +0.000 A 
ATOM      8  C   UNL     1     -56.629 -36.171 -61.637  0.00  0.00    +0.000 A 
ATOM      9  C   UNL     1     -55.708 -37.014 -62.271  0.00  0.00    +0.000 A 
ATOM     10 CL   UNL     1     -54.086 -36.416 -62.328  0.00  0.00    +0.000 Cl
ATOM     11  C   UNL     1     -56.128 -38.259 -62.782  0.00  0.00    +0.000 A 
ATOM     12  C   UNL     1     -55.221 -39.196 -63.502  0.00  0.00    +0.000 A 
ATOM     13  O   UNL     1     -54.076 -38.847 -63.758  0.00  0.00    +0.000 OA
ATOM     14  H   UNL     1     -58.711 -40.300 -62.678  0.00  0.00    +0.000 HD
ENDROOT
BRANCH   1  16
ATOM     15  C   UNL     1     -54.126 -42.633 -63.571  0.00  0.00    +0.000 C 
ATOM     16  C   UNL     1     -54.717 -41.562 -64.465  0.00  0.00    +0.000 C 
ATOM     17  O   UNL     1     -54.376 -41.520 -65.649  0.00  0.00    +0.000 OA
ENDBRANCH   1  16
BRANCH   2  18
ATOM     18  S   UNL     1     -57.699 -42.521 -63.844  0.00  0.00    +0.000 S 
ATOM     19  O   UNL     1     -58.719 -42.597 -62.739  0.00  0.00    +0.000 OA
BRANCH  18  20
ATOM     20  C   UNL     1     -58.647 -42.281 -65.388  0.00  0.00    +0.000 C 
BRANCH  20  21
ATOM     21  C   UNL     1     -57.835 -42.577 -66.611  0.00  0.00    +0.000 A 
ATOM     22  C   UNL     1     -57.138 -41.689 -67.471  0.00  0.00    +0.000 A 
ATOM     23  C   UNL     1     -56.468 -42.506 -68.350  0.00  0.00    +0.000 A 
ATOM     24  C   UNL     1     -55.538 -42.287 -69.475  0.00  0.00    +0.000 C 
ATOM     25  O   UNL     1     -56.757 -43.804 -68.050  0.00  0.00    +0.000 OA
ATOM     26  N   UNL     1     -57.606 -43.851 -66.958  0.00  0.00    +0.000 NA
ENDBRANCH  20  21
ENDBRANCH  18  20
ENDBRANCH   2  18
TORSDOF 4
