MODEL 1
REMARK VINA RESULT:    -7.259      0.000      0.000
REMARK INTER + INTRA:          -9.697
REMARK INTER:                  -8.956
REMARK INTRA:                  -0.741
REMARK UNBOUND:                -0.741
REMARK  Name = 
REMARK  5 active torsions:
REMARK  status: ('A' for Active; 'I' for Inactive)
REMARK    1  A    between atoms: C_1  and  C_2
REMARK    2  A    between atoms: C_2  and  C_4
REMARK    3  A    between atoms: C_5  and  S_6
REMARK    4  A    between atoms: S_6  and  C_8
REMARK    5  A    between atoms: C_8  and  C_9
REMARK                            x       y       z     vdW  Elec       q    Type
REMARK                         _______ _______ _______ _____ _____    ______ ____
ROOT
ATOM      1  C   UNL     1     -56.161 -42.856 -76.749  0.00  0.00    +0.000 A 
ATOM      2  C   UNL     1     -55.171 -43.682 -76.346  0.00  0.00    +0.000 A 
ATOM      3  N   UNL     1     -55.167 -45.046 -76.582  0.00  0.00    +0.000 N 
ATOM      4  C   UNL     1     -56.320 -45.714 -77.028  0.00  0.00    +0.000 A 
ATOM      5  C   UNL     1     -56.379 -47.119 -77.047  0.00  0.00    +0.000 A 
ATOM      6 BR   UNL     1     -54.925 -48.166 -76.416  0.00  0.00    +0.000 Br
ATOM      7  C   UNL     1     -57.512 -47.776 -77.515  0.00  0.00    +0.000 A 
ATOM      8  C   UNL     1     -58.598 -47.035 -77.977  0.00  0.00    +0.000 A 
ATOM      9  C   UNL     1     -58.548 -45.636 -77.994  0.00  0.00    +0.000 A 
ATOM     10 CL   UNL     1     -59.981 -44.832 -78.527  0.00  0.00    +0.000 Cl
ATOM     11  C   UNL     1     -57.395 -44.972 -77.546  0.00  0.00    +0.000 A 
ATOM     12  C   UNL     1     -57.223 -43.493 -77.592  0.00  0.00    +0.000 A 
ATOM     13  O   UNL     1     -57.910 -42.799 -78.334  0.00  0.00    +0.000 OA
ATOM     14  H   UNL     1     -54.596 -45.581 -75.926  0.00  0.00    +0.000 HD
ENDROOT
BRANCH   1  16
ATOM     15  C   UNL     1     -55.652 -40.378 -77.362  0.00  0.00    +0.000 C 
ATOM     16  C   UNL     1     -56.251 -41.394 -76.418  0.00  0.00    +0.000 C 
ATOM     17  O   UNL     1     -56.815 -41.002 -75.390  0.00  0.00    +0.000 OA
ENDBRANCH   1  16
BRANCH   2  18
ATOM     18  S   UNL     1     -53.823 -43.080 -75.298  0.00  0.00    +0.000 S 
ATOM     19  O   UNL     1     -53.130 -44.339 -74.855  0.00  0.00    +0.000 OA
BRANCH  18  20
ATOM     20  C   UNL     1     -52.739 -42.341 -76.576  0.00  0.00    +0.000 C 
BRANCH  20  21
ATOM     21  C   UNL     1     -51.760 -41.268 -76.162  0.00  0.00    +0.000 A 
ATOM     22  C   UNL     1     -50.546 -41.543 -75.523  0.00  0.00    +0.000 A 
ATOM     23  C   UNL     1     -49.648 -40.514 -75.228  0.00  0.00    +0.000 A 
ATOM     24  C   UNL     1     -49.936 -39.200 -75.590  0.00  0.00    +0.000 A 
ATOM     25  C   UNL     1     -51.126 -38.914 -76.253  0.00  0.00    +0.000 A 
ATOM     26  C   UNL     1     -52.027 -39.940 -76.541  0.00  0.00    +0.000 A 
ENDBRANCH  20  21
ENDBRANCH  18  20
ENDBRANCH   2  18
TORSDOF 4
ENDMDL
MODEL 2
REMARK VINA RESULT:    -7.228      3.271      6.042
REMARK INTER + INTRA:          -9.660
REMARK INTER:                  -8.680
REMARK INTRA:                  -0.979
REMARK UNBOUND:                -0.741
REMARK  Name = 
REMARK  5 active torsions:
REMARK  status: ('A' for Active; 'I' for Inactive)
REMARK    1  A    between atoms: C_1  and  C_2
REMARK    2  A    between atoms: C_2  and  C_4
REMARK    3  A    between atoms: C_5  and  S_6
REMARK    4  A    between atoms: S_6  and  C_8
REMARK    5  A    between atoms: C_8  and  C_9
REMARK                            x       y       z     vdW  Elec       q    Type
REMARK                         _______ _______ _______ _____ _____    ______ ____
ROOT
ATOM      1  C   UNL     1     -55.829 -41.633 -77.581  0.00  0.00    +0.000 A 
ATOM      2  C   UNL     1     -55.685 -42.757 -76.845  0.00  0.00    +0.000 A 
ATOM      3  N   UNL     1     -54.594 -43.005 -76.030  0.00  0.00    +0.000 N 
ATOM      4  C   UNL     1     -53.428 -42.223 -76.110  0.00  0.00    +0.000 A 
ATOM      5  C   UNL     1     -52.250 -42.615 -75.452  0.00  0.00    +0.000 A 
ATOM      6 BR   UNL     1     -52.170 -44.243 -74.477  0.00  0.00    +0.000 Br
ATOM      7  C   UNL     1     -51.107 -41.824 -75.511  0.00  0.00    +0.000 A 
ATOM      8  C   UNL     1     -51.132 -40.628 -76.225  0.00  0.00    +0.000 A 
ATOM      9  C   UNL     1     -52.304 -40.206 -76.864  0.00  0.00    +0.000 A 
ATOM     10 CL   UNL     1     -52.188 -38.740 -77.771  0.00  0.00    +0.000 Cl
ATOM     11  C   UNL     1     -53.466 -40.989 -76.783  0.00  0.00    +0.000 A 
ATOM     12  C   UNL     1     -54.776 -40.589 -77.369  0.00  0.00    +0.000 A 
ATOM     13  O   UNL     1     -55.014 -39.418 -77.643  0.00  0.00    +0.000 OA
ATOM     14  H   UNL     1     -54.426 -43.996 -75.848  0.00  0.00    +0.000 HD
ENDROOT
BRANCH   1  16
ATOM     15  C   UNL     1     -56.787 -41.810 -79.996  0.00  0.00    +0.000 C 
ATOM     16  C   UNL     1     -56.942 -41.378 -78.556  0.00  0.00    +0.000 C 
ATOM     17  O   UNL     1     -57.991 -40.828 -78.202  0.00  0.00    +0.000 OA
ENDBRANCH   1  16
BRANCH   2  18
ATOM     18  S   UNL     1     -56.854 -44.130 -77.001  0.00  0.00    +0.000 S 
ATOM     19  O   UNL     1     -56.239 -45.216 -76.163  0.00  0.00    +0.000 OA
BRANCH  18  20
ATOM     20  C   UNL     1     -58.246 -43.468 -76.009  0.00  0.00    +0.000 C 
BRANCH  20  21
ATOM     21  C   UNL     1     -57.932 -42.639 -74.786  0.00  0.00    +0.000 A 
ATOM     22  C   UNL     1     -57.231 -43.134 -73.682  0.00  0.00    +0.000 A 
ATOM     23  C   UNL     1     -56.907 -42.298 -72.610  0.00  0.00    +0.000 A 
ATOM     24  C   UNL     1     -57.256 -40.950 -72.637  0.00  0.00    +0.000 A 
ATOM     25  C   UNL     1     -57.927 -40.434 -73.742  0.00  0.00    +0.000 A 
ATOM     26  C   UNL     1     -58.257 -41.270 -74.809  0.00  0.00    +0.000 A 
ENDBRANCH  20  21
ENDBRANCH  18  20
ENDBRANCH   2  18
TORSDOF 4
ENDMDL
MODEL 3
REMARK VINA RESULT:    -7.202      2.174      2.782
REMARK INTER + INTRA:          -9.628
REMARK INTER:                  -8.963
REMARK INTRA:                  -0.665
REMARK UNBOUND:                -0.741
REMARK  Name = 
REMARK  5 active torsions:
REMARK  status: ('A' for Active; 'I' for Inactive)
REMARK    1  A    between atoms: C_1  and  C_2
REMARK    2  A    between atoms: C_2  and  C_4
REMARK    3  A    between atoms: C_5  and  S_6
REMARK    4  A    between atoms: S_6  and  C_8
REMARK    5  A    between atoms: C_8  and  C_9
REMARK                            x       y       z     vdW  Elec       q    Type
REMARK                         _______ _______ _______ _____ _____    ______ ____
ROOT
ATOM      1  C   UNL     1     -55.690 -43.165 -78.439  0.00  0.00    +0.000 A 
ATOM      2  C   UNL     1     -54.581 -42.908 -77.711  0.00  0.00    +0.000 A 
ATOM      3  N   UNL     1     -53.930 -43.859 -76.944  0.00  0.00    +0.000 N 
ATOM      4  C   UNL     1     -54.527 -45.099 -76.656  0.00  0.00    +0.000 A 
ATOM      5  C   UNL     1     -53.969 -45.963 -75.698  0.00  0.00    +0.000 A 
ATOM      6 BR   UNL     1     -52.423 -45.464 -74.714  0.00  0.00    +0.000 Br
ATOM      7  C   UNL     1     -54.547 -47.201 -75.436  0.00  0.00    +0.000 A 
ATOM      8  C   UNL     1     -55.687 -47.592 -76.136  0.00  0.00    +0.000 A 
ATOM      9  C   UNL     1     -56.241 -46.759 -77.114  0.00  0.00    +0.000 A 
ATOM     10 CL   UNL     1     -57.690 -47.327 -77.863  0.00  0.00    +0.000 Cl
ATOM     11  C   UNL     1     -55.644 -45.521 -77.399  0.00  0.00    +0.000 A 
ATOM     12  C   UNL     1     -56.119 -44.600 -78.469  0.00  0.00    +0.000 A 
ATOM     13  O   UNL     1     -56.821 -45.007 -79.388  0.00  0.00    +0.000 OA
ATOM     14  H   UNL     1     -53.375 -43.470 -76.181  0.00  0.00    +0.000 HD
ENDROOT
BRANCH   1  16
ATOM     15  C   UNL     1     -57.682 -41.491 -78.541  0.00  0.00    +0.000 C 
ATOM     16  C   UNL     1     -56.481 -42.136 -79.194  0.00  0.00    +0.000 C 
ATOM     17  O   UNL     1     -56.166 -41.800 -80.341  0.00  0.00    +0.000 OA
ENDBRANCH   1  16
BRANCH   2  18
ATOM     18  S   UNL     1     -53.942 -41.222 -77.547  0.00  0.00    +0.000 S 
ATOM     19  O   UNL     1     -54.751 -40.645 -76.418  0.00  0.00    +0.000 OA
BRANCH  18  20
ATOM     20  C   UNL     1     -52.291 -41.582 -76.839  0.00  0.00    +0.000 C 
BRANCH  20  21
ATOM     21  C   UNL     1     -51.428 -40.425 -76.392  0.00  0.00    +0.000 A 
ATOM     22  C   UNL     1     -51.779 -39.086 -76.588  0.00  0.00    +0.000 A 
ATOM     23  C   UNL     1     -50.975 -38.058 -76.088  0.00  0.00    +0.000 A 
ATOM     24  C   UNL     1     -49.822 -38.354 -75.363  0.00  0.00    +0.000 A 
ATOM     25  C   UNL     1     -49.475 -39.682 -75.133  0.00  0.00    +0.000 A 
ATOM     26  C   UNL     1     -50.274 -40.709 -75.639  0.00  0.00    +0.000 A 
ENDBRANCH  20  21
ENDBRANCH  18  20
ENDBRANCH   2  18
TORSDOF 4
ENDMDL
MODEL 4
REMARK VINA RESULT:    -7.131      3.090      3.726
REMARK INTER + INTRA:          -9.540
REMARK INTER:                  -8.663
REMARK INTRA:                  -0.878
REMARK UNBOUND:                -0.741
REMARK  Name = 
REMARK  5 active torsions:
REMARK  status: ('A' for Active; 'I' for Inactive)
REMARK    1  A    between atoms: C_1  and  C_2
REMARK    2  A    between atoms: C_2  and  C_4
REMARK    3  A    between atoms: C_5  and  S_6
REMARK    4  A    between atoms: S_6  and  C_8
REMARK    5  A    between atoms: C_8  and  C_9
REMARK                            x       y       z     vdW  Elec       q    Type
REMARK                         _______ _______ _______ _____ _____    ______ ____
ROOT
ATOM      1  C   UNL     1     -56.167 -41.770 -76.163  0.00  0.00    +0.000 A 
ATOM      2  C   UNL     1     -54.900 -41.840 -76.626  0.00  0.00    +0.000 A 
ATOM      3  N   UNL     1     -54.560 -41.672 -77.957  0.00  0.00    +0.000 N 
ATOM      4  C   UNL     1     -55.537 -41.676 -78.968  0.00  0.00    +0.000 A 
ATOM      5  C   UNL     1     -55.173 -41.734 -80.324  0.00  0.00    +0.000 A 
ATOM      6 BR   UNL     1     -53.350 -41.868 -80.842  0.00  0.00    +0.000 Br
ATOM      7  C   UNL     1     -56.142 -41.709 -81.322  0.00  0.00    +0.000 A 
ATOM      8  C   UNL     1     -57.489 -41.619 -80.973  0.00  0.00    +0.000 A 
ATOM      9  C   UNL     1     -57.870 -41.531 -79.629  0.00  0.00    +0.000 A 
ATOM     10 CL   UNL     1     -59.570 -41.491 -79.324  0.00  0.00    +0.000 Cl
ATOM     11  C   UNL     1     -56.892 -41.529 -78.622  0.00  0.00    +0.000 A 
ATOM     12  C   UNL     1     -57.197 -41.368 -77.173  0.00  0.00    +0.000 A 
ATOM     13  O   UNL     1     -58.259 -40.880 -76.801  0.00  0.00    +0.000 OA
ATOM     14  H   UNL     1     -53.678 -42.113 -78.221  0.00  0.00    +0.000 HD
ENDROOT
BRANCH   1  16
ATOM     15  C   UNL     1     -57.001 -43.453 -74.359  0.00  0.00    +0.000 C 
ATOM     16  C   UNL     1     -56.584 -42.053 -74.748  0.00  0.00    +0.000 C 
ATOM     17  O   UNL     1     -56.586 -41.163 -73.890  0.00  0.00    +0.000 OA
ENDBRANCH   1  16
BRANCH   2  18
ATOM     18  S   UNL     1     -53.537 -42.338 -75.543  0.00  0.00    +0.000 S 
ATOM     19  O   UNL     1     -53.579 -43.841 -75.589  0.00  0.00    +0.000 OA
BRANCH  18  20
ATOM     20  C   UNL     1     -52.114 -41.851 -76.590  0.00  0.00    +0.000 C 
BRANCH  20  21
ATOM     21  C   UNL     1     -51.405 -40.552 -76.286  0.00  0.00    +0.000 A 
ATOM     22  C   UNL     1     -51.944 -39.297 -76.582  0.00  0.00    +0.000 A 
ATOM     23  C   UNL     1     -51.272 -38.128 -76.212  0.00  0.00    +0.000 A 
ATOM     24  C   UNL     1     -50.066 -38.197 -75.519  0.00  0.00    +0.000 A 
ATOM     25  C   UNL     1     -49.531 -39.439 -75.189  0.00  0.00    +0.000 A 
ATOM     26  C   UNL     1     -50.197 -40.606 -75.565  0.00  0.00    +0.000 A 
ENDBRANCH  20  21
ENDBRANCH  18  20
ENDBRANCH   2  18
TORSDOF 4
ENDMDL
MODEL 5
REMARK VINA RESULT:    -7.073     13.624     14.749
REMARK INTER + INTRA:          -9.468
REMARK INTER:                  -8.694
REMARK INTRA:                  -0.774
REMARK UNBOUND:                -0.741
REMARK  Name = 
REMARK  5 active torsions:
REMARK  status: ('A' for Active; 'I' for Inactive)
REMARK    1  A    between atoms: C_1  and  C_2
REMARK    2  A    between atoms: C_2  and  C_4
REMARK    3  A    between atoms: C_5  and  S_6
REMARK    4  A    between atoms: S_6  and  C_8
REMARK    5  A    between atoms: C_8  and  C_9
REMARK                            x       y       z     vdW  Elec       q    Type
REMARK                         _______ _______ _______ _____ _____    ______ ____
ROOT
ATOM      1  C   UNL     1     -56.199 -42.050 -62.576  0.00  0.00    +0.000 A 
ATOM      2  C   UNL     1     -55.856 -40.945 -63.272  0.00  0.00    +0.000 A 
ATOM      3  N   UNL     1     -54.690 -40.835 -64.010  0.00  0.00    +0.000 N 
ATOM      4  C   UNL     1     -53.649 -41.769 -63.877  0.00  0.00    +0.000 A 
ATOM      5  C   UNL     1     -52.387 -41.532 -64.449  0.00  0.00    +0.000 A 
ATOM      6 BR   UNL     1     -52.023 -39.914 -65.375  0.00  0.00    +0.000 Br
ATOM      7  C   UNL     1     -51.368 -42.473 -64.339  0.00  0.00    +0.000 A 
ATOM      8  C   UNL     1     -51.602 -43.666 -63.658  0.00  0.00    +0.000 A 
ATOM      9  C   UNL     1     -52.860 -43.934 -63.106  0.00  0.00    +0.000 A 
ATOM     10 CL   UNL     1     -53.004 -45.417 -62.232  0.00  0.00    +0.000 Cl
ATOM     11  C   UNL     1     -53.897 -42.998 -63.240  0.00  0.00    +0.000 A 
ATOM     12  C   UNL     1     -55.285 -43.225 -62.748  0.00  0.00    +0.000 A 
ATOM     13  O   UNL     1     -55.698 -44.357 -62.520  0.00  0.00    +0.000 OA
ATOM     14  H   UNL     1     -54.378 -39.873 -64.156  0.00  0.00    +0.000 HD
ENDROOT
BRANCH   1  16
ATOM     15  C   UNL     1     -58.750 -42.479 -62.281  0.00  0.00    +0.000 C 
ATOM     16  C   UNL     1     -57.398 -42.167 -61.680  0.00  0.00    +0.000 C 
ATOM     17  O   UNL     1     -57.302 -42.019 -60.457  0.00  0.00    +0.000 OA
ENDBRANCH   1  16
BRANCH   2  18
ATOM     18  S   UNL     1     -56.836 -39.427 -63.155  0.00  0.00    +0.000 S 
ATOM     19  O   UNL     1     -56.652 -38.995 -61.726  0.00  0.00    +0.000 OA
BRANCH  18  20
ATOM     20  C   UNL     1     -55.788 -38.302 -64.151  0.00  0.00    +0.000 C 
BRANCH  20  21
ATOM     21  C   UNL     1     -55.350 -36.991 -63.540  0.00  0.00    +0.000 A 
ATOM     22  C   UNL     1     -56.188 -35.877 -63.434  0.00  0.00    +0.000 A 
ATOM     23  C   UNL     1     -55.749 -34.715 -62.793  0.00  0.00    +0.000 A 
ATOM     24  C   UNL     1     -54.478 -34.658 -62.226  0.00  0.00    +0.000 A 
ATOM     25  C   UNL     1     -53.643 -35.770 -62.296  0.00  0.00    +0.000 A 
ATOM     26  C   UNL     1     -54.077 -36.928 -62.943  0.00  0.00    +0.000 A 
ENDBRANCH  20  21
ENDBRANCH  18  20
ENDBRANCH   2  18
TORSDOF 4
ENDMDL
MODEL 6
REMARK VINA RESULT:    -7.051      2.082      2.197
REMARK INTER + INTRA:          -9.441
REMARK INTER:                  -8.645
REMARK INTRA:                  -0.796
REMARK UNBOUND:                -0.741
REMARK  Name = 
REMARK  5 active torsions:
REMARK  status: ('A' for Active; 'I' for Inactive)
REMARK    1  A    between atoms: C_1  and  C_2
REMARK    2  A    between atoms: C_2  and  C_4
REMARK    3  A    between atoms: C_5  and  S_6
REMARK    4  A    between atoms: S_6  and  C_8
REMARK    5  A    between atoms: C_8  and  C_9
REMARK                            x       y       z     vdW  Elec       q    Type
REMARK                         _______ _______ _______ _____ _____    ______ ____
ROOT
ATOM      1  C   UNL     1     -54.638 -42.840 -78.637  0.00  0.00    +0.000 A 
ATOM      2  C   UNL     1     -54.295 -43.316 -77.420  0.00  0.00    +0.000 A 
ATOM      3  N   UNL     1     -54.433 -44.643 -77.049  0.00  0.00    +0.000 N 
ATOM      4  C   UNL     1     -55.188 -45.543 -77.820  0.00  0.00    +0.000 A 
ATOM      5  C   UNL     1     -55.515 -46.819 -77.328  0.00  0.00    +0.000 A 
ATOM      6 BR   UNL     1     -55.000 -47.352 -75.579  0.00  0.00    +0.000 Br
ATOM      7  C   UNL     1     -56.238 -47.717 -78.106  0.00  0.00    +0.000 A 
ATOM      8  C   UNL     1     -56.637 -47.351 -79.391  0.00  0.00    +0.000 A 
ATOM      9  C   UNL     1     -56.296 -46.097 -79.910  0.00  0.00    +0.000 A 
ATOM     10 CL   UNL     1     -56.905 -45.738 -81.487  0.00  0.00    +0.000 Cl
ATOM     11  C   UNL     1     -55.544 -45.199 -79.136  0.00  0.00    +0.000 A 
ATOM     12  C   UNL     1     -55.075 -43.874 -79.629  0.00  0.00    +0.000 A 
ATOM     13  O   UNL     1     -55.008 -43.634 -80.830  0.00  0.00    +0.000 OA
ATOM     14  H   UNL     1     -54.505 -44.788 -76.040  0.00  0.00    +0.000 HD
ENDROOT
BRANCH   1  16
ATOM     15  C   UNL     1     -53.335 -40.812 -79.619  0.00  0.00    +0.000 C 
ATOM     16  C   UNL     1     -54.602 -41.394 -79.037  0.00  0.00    +0.000 C 
ATOM     17  O   UNL     1     -55.594 -40.667 -78.907  0.00  0.00    +0.000 OA
ENDBRANCH   1  16
BRANCH   2  18
ATOM     18  S   UNL     1     -53.770 -42.199 -76.095  0.00  0.00    +0.000 S 
ATOM     19  O   UNL     1     -53.904 -43.036 -74.853  0.00  0.00    +0.000 OA
BRANCH  18  20
ATOM     20  C   UNL     1     -51.974 -42.119 -76.448  0.00  0.00    +0.000 C 
BRANCH  20  21
ATOM     21  C   UNL     1     -51.210 -40.884 -76.032  0.00  0.00    +0.000 A 
ATOM     22  C   UNL     1     -49.963 -40.929 -75.402  0.00  0.00    +0.000 A 
ATOM     23  C   UNL     1     -49.272 -39.750 -75.106  0.00  0.00    +0.000 A 
ATOM     24  C   UNL     1     -49.804 -38.512 -75.460  0.00  0.00    +0.000 A 
ATOM     25  C   UNL     1     -51.030 -38.452 -76.115  0.00  0.00    +0.000 A 
ATOM     26  C   UNL     1     -51.725 -39.628 -76.404  0.00  0.00    +0.000 A 
ENDBRANCH  20  21
ENDBRANCH  18  20
ENDBRANCH   2  18
TORSDOF 4
ENDMDL
MODEL 7
REMARK VINA RESULT:    -6.975      3.729      6.092
REMARK INTER + INTRA:          -9.348
REMARK INTER:                  -8.549
REMARK INTRA:                  -0.798
REMARK UNBOUND:                -0.741
REMARK  Name = 
REMARK  5 active torsions:
REMARK  status: ('A' for Active; 'I' for Inactive)
REMARK    1  A    between atoms: C_1  and  C_2
REMARK    2  A    between atoms: C_2  and  C_4
REMARK    3  A    between atoms: C_5  and  S_6
REMARK    4  A    between atoms: S_6  and  C_8
REMARK    5  A    between atoms: C_8  and  C_9
REMARK                            x       y       z     vdW  Elec       q    Type
REMARK                         _______ _______ _______ _____ _____    ______ ____
ROOT
ATOM      1  C   UNL     1     -53.850 -41.323 -78.427  0.00  0.00    +0.000 A 
ATOM      2  C   UNL     1     -54.740 -42.338 -78.398  0.00  0.00    +0.000 A 
ATOM      3  N   UNL     1     -54.777 -43.297 -77.400  0.00  0.00    +0.000 N 
ATOM      4  C   UNL     1     -53.723 -43.437 -76.482  0.00  0.00    +0.000 A 
ATOM      5  C   UNL     1     -53.657 -44.548 -75.622  0.00  0.00    +0.000 A 
ATOM      6 BR   UNL     1     -54.957 -45.929 -75.709  0.00  0.00    +0.000 Br
ATOM      7  C   UNL     1     -52.627 -44.668 -74.695  0.00  0.00    +0.000 A 
ATOM      8  C   UNL     1     -51.653 -43.674 -74.613  0.00  0.00    +0.000 A 
ATOM      9  C   UNL     1     -51.717 -42.547 -75.440  0.00  0.00    +0.000 A 
ATOM     10 CL   UNL     1     -50.416 -41.420 -75.288  0.00  0.00    +0.000 Cl
ATOM     11  C   UNL     1     -52.770 -42.411 -76.357  0.00  0.00    +0.000 A 
ATOM     12  C   UNL     1     -52.961 -41.216 -77.226  0.00  0.00    +0.000 A 
ATOM     13  O   UNL     1     -52.431 -40.144 -76.953  0.00  0.00    +0.000 OA
ATOM     14  H   UNL     1     -55.210 -44.178 -77.684  0.00  0.00    +0.000 HD
ENDROOT
BRANCH   1  16
ATOM     15  C   UNL     1     -54.110 -38.890 -79.318  0.00  0.00    +0.000 C 
ATOM     16  C   UNL     1     -53.712 -40.330 -79.545  0.00  0.00    +0.000 C 
ATOM     17  O   UNL     1     -53.271 -40.666 -80.650  0.00  0.00    +0.000 OA
ENDBRANCH   1  16
BRANCH   2  18
ATOM     18  S   UNL     1     -55.872 -42.627 -79.782  0.00  0.00    +0.000 S 
ATOM     19  O   UNL     1     -56.333 -44.043 -79.573  0.00  0.00    +0.000 OA
BRANCH  18  20
ATOM     20  C   UNL     1     -57.275 -41.568 -79.263  0.00  0.00    +0.000 C 
BRANCH  20  21
ATOM     21  C   UNL     1     -57.581 -41.445 -77.789  0.00  0.00    +0.000 A 
ATOM     22  C   UNL     1     -57.277 -40.308 -77.035  0.00  0.00    +0.000 A 
ATOM     23  C   UNL     1     -57.650 -40.225 -75.690  0.00  0.00    +0.000 A 
ATOM     24  C   UNL     1     -58.356 -41.264 -75.088  0.00  0.00    +0.000 A 
ATOM     25  C   UNL     1     -58.694 -42.389 -75.834  0.00  0.00    +0.000 A 
ATOM     26  C   UNL     1     -58.314 -42.477 -77.174  0.00  0.00    +0.000 A 
ENDBRANCH  20  21
ENDBRANCH  18  20
ENDBRANCH   2  18
TORSDOF 4
ENDMDL
MODEL 8
REMARK VINA RESULT:    -6.948     24.406     25.654
REMARK INTER + INTRA:          -9.314
REMARK INTER:                  -8.524
REMARK INTRA:                  -0.790
REMARK UNBOUND:                -0.741
REMARK  Name = 
REMARK  5 active torsions:
REMARK  status: ('A' for Active; 'I' for Inactive)
REMARK    1  A    between atoms: C_1  and  C_2
REMARK    2  A    between atoms: C_2  and  C_4
REMARK    3  A    between atoms: C_5  and  S_6
REMARK    4  A    between atoms: S_6  and  C_8
REMARK    5  A    between atoms: C_8  and  C_9
REMARK                            x       y       z     vdW  Elec       q    Type
REMARK                         _______ _______ _______ _____ _____    ______ ____
ROOT
ATOM      1  C   UNL     1     -68.718 -51.303 -55.623  0.00  0.00    +0.000 A 
ATOM      2  C   UNL     1     -67.877 -50.250 -55.720  0.00  0.00    +0.000 A 
ATOM      3  N   UNL     1     -66.673 -50.165 -55.041  0.00  0.00    +0.000 N 
ATOM      4  C   UNL     1     -66.359 -51.050 -53.996  0.00  0.00    +0.000 A 
ATOM      5  C   UNL     1     -65.249 -50.821 -53.165  0.00  0.00    +0.000 A 
ATOM      6 BR   UNL     1     -64.166 -49.277 -53.385  0.00  0.00    +0.000 Br
ATOM      7  C   UNL     1     -64.925 -51.716 -52.150  0.00  0.00    +0.000 A 
ATOM      8  C   UNL     1     -65.706 -52.854 -51.958  0.00  0.00    +0.000 A 
ATOM      9  C   UNL     1     -66.799 -53.115 -52.793  0.00  0.00    +0.000 A 
ATOM     10 CL   UNL     1     -67.726 -54.522 -52.412  0.00  0.00    +0.000 Cl
ATOM     11  C   UNL     1     -67.111 -52.228 -53.835  0.00  0.00    +0.000 A 
ATOM     12  C   UNL     1     -68.208 -52.458 -54.816  0.00  0.00    +0.000 A 
ATOM     13  O   UNL     1     -68.670 -53.579 -54.997  0.00  0.00    +0.000 OA
ATOM     14  H   UNL     1     -66.341 -49.209 -54.900  0.00  0.00    +0.000 HD
ENDROOT
BRANCH   1  16
ATOM     15  C   UNL     1     -71.301 -51.033 -55.445  0.00  0.00    +0.000 C 
ATOM     16  C   UNL     1     -70.076 -51.382 -56.258  0.00  0.00    +0.000 C 
ATOM     17  O   UNL     1     -70.214 -51.721 -57.439  0.00  0.00    +0.000 OA
ENDBRANCH   1  16
BRANCH   2  18
ATOM     18  S   UNL     1     -68.349 -48.761 -56.635  0.00  0.00    +0.000 S 
ATOM     19  O   UNL     1     -69.336 -48.083 -55.726  0.00  0.00    +0.000 OA
BRANCH  18  20
ATOM     20  C   UNL     1     -66.797 -47.799 -56.486  0.00  0.00    +0.000 C 
BRANCH  20  21
ATOM     21  C   UNL     1     -66.017 -47.485 -57.741  0.00  0.00    +0.000 A 
ATOM     22  C   UNL     1     -64.815 -46.770 -57.739  0.00  0.00    +0.000 A 
ATOM     23  C   UNL     1     -64.102 -46.573 -58.925  0.00  0.00    +0.000 A 
ATOM     24  C   UNL     1     -64.564 -47.110 -60.124  0.00  0.00    +0.000 A 
ATOM     25  C   UNL     1     -65.742 -47.851 -60.138  0.00  0.00    +0.000 A 
ATOM     26  C   UNL     1     -66.460 -48.041 -58.956  0.00  0.00    +0.000 A 
ENDBRANCH  20  21
ENDBRANCH  18  20
ENDBRANCH   2  18
TORSDOF 4
ENDMDL
MODEL 9
REMARK VINA RESULT:    -6.932      3.295      3.979
REMARK INTER + INTRA:          -9.294
REMARK INTER:                  -8.470
REMARK INTRA:                  -0.824
REMARK UNBOUND:                -0.741
REMARK  Name = 
REMARK  5 active torsions:
REMARK  status: ('A' for Active; 'I' for Inactive)
REMARK    1  A    between atoms: C_1  and  C_2
REMARK    2  A    between atoms: C_2  and  C_4
REMARK    3  A    between atoms: C_5  and  S_6
REMARK    4  A    between atoms: S_6  and  C_8
REMARK    5  A    between atoms: C_8  and  C_9
REMARK                            x       y       z     vdW  Elec       q    Type
REMARK                         _______ _______ _______ _____ _____    ______ ____
ROOT
ATOM      1  C   UNL     1     -54.059 -42.425 -80.190  0.00  0.00    +0.000 A 
ATOM      2  C   UNL     1     -53.855 -41.783 -79.018  0.00  0.00    +0.000 A 
ATOM      3  N   UNL     1     -54.197 -42.311 -77.785  0.00  0.00    +0.000 N 
ATOM      4  C   UNL     1     -55.025 -43.442 -77.679  0.00  0.00    +0.000 A 
ATOM      5  C   UNL     1     -55.554 -43.836 -76.437  0.00  0.00    +0.000 A 
ATOM      6 BR   UNL     1     -55.218 -42.821 -74.867  0.00  0.00    +0.000 Br
ATOM      7  C   UNL     1     -56.349 -44.972 -76.331  0.00  0.00    +0.000 A 
ATOM      8  C   UNL     1     -56.620 -45.732 -77.468  0.00  0.00    +0.000 A 
ATOM      9  C   UNL     1     -56.079 -45.374 -78.708  0.00  0.00    +0.000 A 
ATOM     10 CL   UNL     1     -56.541 -46.359 -80.050  0.00  0.00    +0.000 Cl
ATOM     11  C   UNL     1     -55.254 -44.243 -78.811  0.00  0.00    +0.000 A 
ATOM     12  C   UNL     1     -54.578 -43.825 -80.071  0.00  0.00    +0.000 A 
ATOM     13  O   UNL     1     -54.410 -44.617 -80.992  0.00  0.00    +0.000 OA
ATOM     14  H   UNL     1     -54.345 -41.609 -77.058  0.00  0.00    +0.000 HD
ENDROOT
BRANCH   1  16
ATOM     15  C   UNL     1     -54.946 -41.254 -82.339  0.00  0.00    +0.000 C 
ATOM     16  C   UNL     1     -53.799 -41.840 -81.548  0.00  0.00    +0.000 C 
ATOM     17  O   UNL     1     -52.662 -41.822 -82.032  0.00  0.00    +0.000 OA
ENDBRANCH   1  16
BRANCH   2  18
ATOM     18  S   UNL     1     -53.256 -40.075 -78.982  0.00  0.00    +0.000 S 
ATOM     19  O   UNL     1     -54.437 -39.275 -79.460  0.00  0.00    +0.000 OA
BRANCH  18  20
ATOM     20  C   UNL     1     -53.179 -39.810 -77.171  0.00  0.00    +0.000 C 
BRANCH  20  21
ATOM     21  C   UNL     1     -51.824 -39.693 -76.514  0.00  0.00    +0.000 A 
ATOM     22  C   UNL     1     -51.257 -38.472 -76.136  0.00  0.00    +0.000 A 
ATOM     23  C   UNL     1     -50.031 -38.433 -75.467  0.00  0.00    +0.000 A 
ATOM     24  C   UNL     1     -49.366 -39.613 -75.142  0.00  0.00    +0.000 A 
ATOM     25  C   UNL     1     -49.932 -40.838 -75.484  0.00  0.00    +0.000 A 
ATOM     26  C   UNL     1     -51.152 -40.878 -76.159  0.00  0.00    +0.000 A 
ENDBRANCH  20  21
ENDBRANCH  18  20
ENDBRANCH   2  18
TORSDOF 4
ENDMDL
MODEL 10
REMARK VINA RESULT:    -6.863      4.587      6.437
REMARK INTER + INTRA:          -9.210
REMARK INTER:                  -8.594
REMARK INTRA:                  -0.616
REMARK UNBOUND:                -0.741
REMARK  Name = 
REMARK  5 active torsions:
REMARK  status: ('A' for Active; 'I' for Inactive)
REMARK    1  A    between atoms: C_1  and  C_2
REMARK    2  A    between atoms: C_2  and  C_4
REMARK    3  A    between atoms: C_5  and  S_6
REMARK    4  A    between atoms: S_6  and  C_8
REMARK    5  A    between atoms: C_8  and  C_9
REMARK                            x       y       z     vdW  Elec       q    Type
REMARK                         _______ _______ _______ _____ _____    ______ ____
ROOT
ATOM      1  C   UNL     1     -53.274 -41.181 -78.286  0.00  0.00    +0.000 A 
ATOM      2  C   UNL     1     -54.621 -41.151 -78.383  0.00  0.00    +0.000 A 
ATOM      3  N   UNL     1     -55.318 -41.555 -79.509  0.00  0.00    +0.000 N 
ATOM      4  C   UNL     1     -54.663 -41.779 -80.733  0.00  0.00    +0.000 A 
ATOM      5  C   UNL     1     -55.394 -41.964 -81.919  0.00  0.00    +0.000 A 
ATOM      6 BR   UNL     1     -57.291 -41.861 -81.925  0.00  0.00    +0.000 Br
ATOM      7  C   UNL     1     -54.743 -42.214 -83.123  0.00  0.00    +0.000 A 
ATOM      8  C   UNL     1     -53.351 -42.287 -83.152  0.00  0.00    +0.000 A 
ATOM      9  C   UNL     1     -52.607 -42.134 -81.977  0.00  0.00    +0.000 A 
ATOM     10 CL   UNL     1     -50.889 -42.180 -82.155  0.00  0.00    +0.000 Cl
ATOM     11  C   UNL     1     -53.264 -41.909 -80.757  0.00  0.00    +0.000 A 
ATOM     12  C   UNL     1     -52.562 -41.805 -79.447  0.00  0.00    +0.000 A 
ATOM     13  O   UNL     1     -51.430 -42.254 -79.298  0.00  0.00    +0.000 OA
ATOM     14  H   UNL     1     -56.246 -41.139 -79.597  0.00  0.00    +0.000 HD
ENDROOT
BRANCH   1  16
ATOM     15  C   UNL     1     -52.022 -41.600 -76.042  0.00  0.00    +0.000 C 
ATOM     16  C   UNL     1     -52.483 -40.652 -77.125  0.00  0.00    +0.000 C 
ATOM     17  O   UNL     1     -52.192 -39.453 -77.039  0.00  0.00    +0.000 OA
ENDBRANCH   1  16
BRANCH   2  18
ATOM     18  S   UNL     1     -55.634 -40.407 -77.080  0.00  0.00    +0.000 S 
ATOM     19  O   UNL     1     -56.943 -40.124 -77.766  0.00  0.00    +0.000 OA
BRANCH  18  20
ATOM     20  C   UNL     1     -55.932 -41.882 -76.035  0.00  0.00    +0.000 C 
BRANCH  20  21
ATOM     21  C   UNL     1     -56.516 -41.685 -74.656  0.00  0.00    +0.000 A 
ATOM     22  C   UNL     1     -56.020 -42.322 -73.515  0.00  0.00    +0.000 A 
ATOM     23  C   UNL     1     -56.557 -42.044 -72.254  0.00  0.00    +0.000 A 
ATOM     24  C   UNL     1     -57.579 -41.108 -72.113  0.00  0.00    +0.000 A 
ATOM     25  C   UNL     1     -58.064 -40.444 -73.236  0.00  0.00    +0.000 A 
ATOM     26  C   UNL     1     -57.533 -40.725 -74.496  0.00  0.00    +0.000 A 
ENDBRANCH  20  21
ENDBRANCH  18  20
ENDBRANCH   2  18
TORSDOF 4
ENDMDL
MODEL 11
REMARK VINA RESULT:    -6.861     14.589     15.433
REMARK INTER + INTRA:          -9.207
REMARK INTER:                  -8.352
REMARK INTRA:                  -0.855
REMARK UNBOUND:                -0.741
REMARK  Name = 
REMARK  5 active torsions:
REMARK  status: ('A' for Active; 'I' for Inactive)
REMARK    1  A    between atoms: C_1  and  C_2
REMARK    2  A    between atoms: C_2  and  C_4
REMARK    3  A    between atoms: C_5  and  S_6
REMARK    4  A    between atoms: S_6  and  C_8
REMARK    5  A    between atoms: C_8  and  C_9
REMARK                            x       y       z     vdW  Elec       q    Type
REMARK                         _______ _______ _______ _____ _____    ______ ____
ROOT
ATOM      1  C   UNL     1     -55.684 -42.410 -63.186  0.00  0.00    +0.000 A 
ATOM      2  C   UNL     1     -56.282 -41.686 -62.214  0.00  0.00    +0.000 A 
ATOM      3  N   UNL     1     -56.015 -41.846 -60.865  0.00  0.00    +0.000 N 
ATOM      4  C   UNL     1     -55.295 -42.955 -60.388  0.00  0.00    +0.000 A 
ATOM      5  C   UNL     1     -55.224 -43.232 -59.012  0.00  0.00    +0.000 A 
ATOM      6 BR   UNL     1     -56.145 -42.153 -57.749  0.00  0.00    +0.000 Br
ATOM      7  C   UNL     1     -54.487 -44.314 -58.542  0.00  0.00    +0.000 A 
ATOM      8  C   UNL     1     -53.807 -45.129 -59.446  0.00  0.00    +0.000 A 
ATOM      9  C   UNL     1     -53.841 -44.853 -60.817  0.00  0.00    +0.000 A 
ATOM     10 CL   UNL     1     -53.013 -45.974 -61.838  0.00  0.00    +0.000 Cl
ATOM     11  C   UNL     1     -54.562 -43.746 -61.291  0.00  0.00    +0.000 A 
ATOM     12  C   UNL     1     -54.599 -43.333 -62.721  0.00  0.00    +0.000 A 
ATOM     13  O   UNL     1     -53.738 -43.707 -63.510  0.00  0.00    +0.000 OA
ATOM     14  H   UNL     1     -56.771 -41.537 -60.251  0.00  0.00    +0.000 HD
ENDROOT
BRANCH   1  16
ATOM     15  C   UNL     1     -55.263 -41.394 -65.546  0.00  0.00    +0.000 C 
ATOM     16  C   UNL     1     -56.025 -42.339 -64.646  0.00  0.00    +0.000 C 
ATOM     17  O   UNL     1     -56.916 -43.046 -65.132  0.00  0.00    +0.000 OA
ENDBRANCH   1  16
BRANCH   2  18
ATOM     18  S   UNL     1     -57.631 -40.543 -62.599  0.00  0.00    +0.000 S 
ATOM     19  O   UNL     1     -58.754 -41.007 -61.713  0.00  0.00    +0.000 OA
BRANCH  18  20
ATOM     20  C   UNL     1     -56.981 -39.019 -61.817  0.00  0.00    +0.000 C 
BRANCH  20  21
ATOM     21  C   UNL     1     -56.218 -38.035 -62.673  0.00  0.00    +0.000 A 
ATOM     22  C   UNL     1     -55.254 -38.421 -63.609  0.00  0.00    +0.000 A 
ATOM     23  C   UNL     1     -54.632 -37.470 -64.423  0.00  0.00    +0.000 A 
ATOM     24  C   UNL     1     -54.982 -36.125 -64.332  0.00  0.00    +0.000 A 
ATOM     25  C   UNL     1     -55.962 -35.729 -63.426  0.00  0.00    +0.000 A 
ATOM     26  C   UNL     1     -56.578 -36.676 -62.607  0.00  0.00    +0.000 A 
ENDBRANCH  20  21
ENDBRANCH  18  20
ENDBRANCH   2  18
TORSDOF 4
ENDMDL
MODEL 12
REMARK VINA RESULT:    -6.748      3.335      4.125
REMARK INTER + INTRA:          -9.068
REMARK INTER:                  -8.381
REMARK INTRA:                  -0.687
REMARK UNBOUND:                -0.741
REMARK  Name = 
REMARK  5 active torsions:
REMARK  status: ('A' for Active; 'I' for Inactive)
REMARK    1  A    between atoms: C_1  and  C_2
REMARK    2  A    between atoms: C_2  and  C_4
REMARK    3  A    between atoms: C_5  and  S_6
REMARK    4  A    between atoms: S_6  and  C_8
REMARK    5  A    between atoms: C_8  and  C_9
REMARK                            x       y       z     vdW  Elec       q    Type
REMARK                         _______ _______ _______ _____ _____    ______ ____
ROOT
ATOM      1  C   UNL     1     -55.655 -42.432 -77.649  0.00  0.00    +0.000 A 
ATOM      2  C   UNL     1     -54.697 -41.877 -78.422  0.00  0.00    +0.000 A 
ATOM      3  N   UNL     1     -54.934 -41.360 -79.685  0.00  0.00    +0.000 N 
ATOM      4  C   UNL     1     -56.138 -41.613 -80.364  0.00  0.00    +0.000 A 
ATOM      5  C   UNL     1     -56.284 -41.283 -81.723  0.00  0.00    +0.000 A 
ATOM      6 BR   UNL     1     -54.840 -40.538 -82.708  0.00  0.00    +0.000 Br
ATOM      7  C   UNL     1     -57.487 -41.509 -82.384  0.00  0.00    +0.000 A 
ATOM      8  C   UNL     1     -58.561 -42.063 -81.690  0.00  0.00    +0.000 A 
ATOM      9  C   UNL     1     -58.446 -42.371 -80.329  0.00  0.00    +0.000 A 
ATOM     10 CL   UNL     1     -59.825 -43.112 -79.600  0.00  0.00    +0.000 Cl
ATOM     11  C   UNL     1     -57.241 -42.118 -79.654  0.00  0.00    +0.000 A 
ATOM     12  C   UNL     1     -57.048 -42.347 -78.195  0.00  0.00    +0.000 A 
ATOM     13  O   UNL     1     -58.006 -42.429 -77.435  0.00  0.00    +0.000 OA
ATOM     14  H   UNL     1     -54.108 -41.331 -80.285  0.00  0.00    +0.000 HD
ENDROOT
BRANCH   1  16
ATOM     15  C   UNL     1     -55.323 -42.255 -75.073  0.00  0.00    +0.000 C 
ATOM     16  C   UNL     1     -55.415 -43.097 -76.325  0.00  0.00    +0.000 C 
ATOM     17  O   UNL     1     -55.297 -44.324 -76.235  0.00  0.00    +0.000 OA
ENDBRANCH   1  16
BRANCH   2  18
ATOM     18  S   UNL     1     -52.957 -41.917 -77.925  0.00  0.00    +0.000 S 
ATOM     19  O   UNL     1     -52.213 -41.774 -79.224  0.00  0.00    +0.000 OA
BRANCH  18  20
ATOM     20  C   UNL     1     -52.830 -40.285 -77.100  0.00  0.00    +0.000 C 
BRANCH  20  21
ATOM     21  C   UNL     1     -51.575 -39.963 -76.324  0.00  0.00    +0.000 A 
ATOM     22  C   UNL     1     -50.672 -40.936 -75.887  0.00  0.00    +0.000 A 
ATOM     23  C   UNL     1     -49.490 -40.571 -75.236  0.00  0.00    +0.000 A 
ATOM     24  C   UNL     1     -49.182 -39.227 -75.035  0.00  0.00    +0.000 A 
ATOM     25  C   UNL     1     -50.056 -38.245 -75.491  0.00  0.00    +0.000 A 
ATOM     26  C   UNL     1     -51.239 -38.609 -76.135  0.00  0.00    +0.000 A 
ENDBRANCH  20  21
ENDBRANCH  18  20
ENDBRANCH   2  18
TORSDOF 4
ENDMDL
MODEL 13
REMARK VINA RESULT:    -6.649     13.478     15.114
REMARK INTER + INTRA:          -8.946
REMARK INTER:                  -8.093
REMARK INTRA:                  -0.852
REMARK UNBOUND:                -0.741
REMARK  Name = 
REMARK  5 active torsions:
REMARK  status: ('A' for Active; 'I' for Inactive)
REMARK    1  A    between atoms: C_1  and  C_2
REMARK    2  A    between atoms: C_2  and  C_4
REMARK    3  A    between atoms: C_5  and  S_6
REMARK    4  A    between atoms: S_6  and  C_8
REMARK    5  A    between atoms: C_8  and  C_9
REMARK                            x       y       z     vdW  Elec       q    Type
REMARK                         _______ _______ _______ _____ _____    ______ ____
ROOT
ATOM      1  C   UNL     1     -58.490 -38.782 -62.112  0.00  0.00    +0.000 A 
ATOM      2  C   UNL     1     -57.727 -39.816 -62.528  0.00  0.00    +0.000 A 
ATOM      3  N   UNL     1     -56.428 -39.675 -62.987  0.00  0.00    +0.000 N 
ATOM      4  C   UNL     1     -55.899 -38.412 -63.304  0.00  0.00    +0.000 A 
ATOM      5  C   UNL     1     -54.672 -38.293 -63.981  0.00  0.00    +0.000 A 
ATOM      6 BR   UNL     1     -53.714 -39.832 -64.545  0.00  0.00    +0.000 Br
ATOM      7  C   UNL     1     -54.138 -37.040 -64.267  0.00  0.00    +0.000 A 
ATOM      8  C   UNL     1     -54.823 -35.892 -63.874  0.00  0.00    +0.000 A 
ATOM      9  C   UNL     1     -56.031 -35.990 -63.174  0.00  0.00    +0.000 A 
ATOM     10 CL   UNL     1     -56.814 -34.496 -62.800  0.00  0.00    +0.000 Cl
ATOM     11  C   UNL     1     -56.558 -37.252 -62.860  0.00  0.00    +0.000 A 
ATOM     12  C   UNL     1     -57.797 -37.455 -62.059  0.00  0.00    +0.000 A 
ATOM     13  O   UNL     1     -58.233 -36.568 -61.333  0.00  0.00    +0.000 OA
ATOM     14  H   UNL     1     -56.120 -40.429 -63.603  0.00  0.00    +0.000 HD
ENDROOT
BRANCH   1  16
ATOM     15  C   UNL     1     -60.287 -39.309 -60.303  0.00  0.00    +0.000 C 
ATOM     16  C   UNL     1     -59.933 -38.884 -61.710  0.00  0.00    +0.000 C 
ATOM     17  O   UNL     1     -60.841 -38.620 -62.506  0.00  0.00    +0.000 OA
ENDBRANCH   1  16
BRANCH   2  18
ATOM     18  S   UNL     1     -58.416 -41.484 -62.677  0.00  0.00    +0.000 S 
ATOM     19  O   UNL     1     -59.470 -41.339 -63.739  0.00  0.00    +0.000 OA
BRANCH  18  20
ATOM     20  C   UNL     1     -57.008 -42.331 -63.489  0.00  0.00    +0.000 C 
BRANCH  20  21
ATOM     21  C   UNL     1     -57.104 -42.638 -64.965  0.00  0.00    +0.000 A 
ATOM     22  C   UNL     1     -57.737 -43.776 -65.473  0.00  0.00    +0.000 A 
ATOM     23  C   UNL     1     -57.856 -43.969 -66.852  0.00  0.00    +0.000 A 
ATOM     24  C   UNL     1     -57.368 -43.016 -67.743  0.00  0.00    +0.000 A 
ATOM     25  C   UNL     1     -56.761 -41.863 -67.253  0.00  0.00    +0.000 A 
ATOM     26  C   UNL     1     -56.635 -41.673 -65.876  0.00  0.00    +0.000 A 
ENDBRANCH  20  21
ENDBRANCH  18  20
ENDBRANCH   2  18
TORSDOF 4
ENDMDL
MODEL 14
REMARK VINA RESULT:    -6.634      3.996      5.771
REMARK INTER + INTRA:          -8.927
REMARK INTER:                  -7.947
REMARK INTRA:                  -0.980
REMARK UNBOUND:                -0.741
REMARK  Name = 
REMARK  5 active torsions:
REMARK  status: ('A' for Active; 'I' for Inactive)
REMARK    1  A    between atoms: C_1  and  C_2
REMARK    2  A    between atoms: C_2  and  C_4
REMARK    3  A    between atoms: C_5  and  S_6
REMARK    4  A    between atoms: S_6  and  C_8
REMARK    5  A    between atoms: C_8  and  C_9
REMARK                            x       y       z     vdW  Elec       q    Type
REMARK                         _______ _______ _______ _____ _____    ______ ____
ROOT
ATOM      1  C   UNL     1     -53.501 -41.049 -78.237  0.00  0.00    +0.000 A 
ATOM      2  C   UNL     1     -54.804 -41.403 -78.249  0.00  0.00    +0.000 A 
ATOM      3  N   UNL     1     -55.346 -42.302 -79.152  0.00  0.00    +0.000 N 
ATOM      4  C   UNL     1     -54.633 -42.713 -80.292  0.00  0.00    +0.000 A 
ATOM      5  C   UNL     1     -55.265 -43.439 -81.316  0.00  0.00    +0.000 A 
ATOM      6 BR   UNL     1     -57.119 -43.841 -81.228  0.00  0.00    +0.000 Br
ATOM      7  C   UNL     1     -54.548 -43.869 -82.428  0.00  0.00    +0.000 A 
ATOM      8  C   UNL     1     -53.188 -43.581 -82.526  0.00  0.00    +0.000 A 
ATOM      9  C   UNL     1     -52.534 -42.885 -81.503  0.00  0.00    +0.000 A 
ATOM     10 CL   UNL     1     -50.863 -42.534 -81.772  0.00  0.00    +0.000 Cl
ATOM     11  C   UNL     1     -53.249 -42.474 -80.367  0.00  0.00    +0.000 A 
ATOM     12  C   UNL     1     -52.625 -41.792 -79.199  0.00  0.00    +0.000 A 
ATOM     13  O   UNL     1     -51.418 -41.861 -78.996  0.00  0.00    +0.000 OA
ATOM     14  H   UNL     1     -56.350 -42.190 -79.300  0.00  0.00    +0.000 HD
ENDROOT
BRANCH   1  16
ATOM     15  C   UNL     1     -53.042 -38.541 -77.710  0.00  0.00    +0.000 C 
ATOM     16  C   UNL     1     -52.902 -40.000 -77.344  0.00  0.00    +0.000 C 
ATOM     17  O   UNL     1     -52.301 -40.306 -76.308  0.00  0.00    +0.000 OA
ENDBRANCH   1  16
BRANCH   2  18
ATOM     18  S   UNL     1     -56.004 -40.585 -77.168  0.00  0.00    +0.000 S 
ATOM     19  O   UNL     1     -57.333 -41.042 -77.704  0.00  0.00    +0.000 OA
BRANCH  18  20
ATOM     20  C   UNL     1     -55.737 -41.538 -75.627  0.00  0.00    +0.000 C 
BRANCH  20  21
ATOM     21  C   UNL     1     -55.231 -42.958 -75.734  0.00  0.00    +0.000 A 
ATOM     22  C   UNL     1     -53.933 -43.339 -75.382  0.00  0.00    +0.000 A 
ATOM     23  C   UNL     1     -53.545 -44.681 -75.434  0.00  0.00    +0.000 A 
ATOM     24  C   UNL     1     -54.456 -45.664 -75.814  0.00  0.00    +0.000 A 
ATOM     25  C   UNL     1     -55.761 -45.305 -76.138  0.00  0.00    +0.000 A 
ATOM     26  C   UNL     1     -56.147 -43.965 -76.094  0.00  0.00    +0.000 A 
ENDBRANCH  20  21
ENDBRANCH  18  20
ENDBRANCH   2  18
TORSDOF 4
ENDMDL
MODEL 15
REMARK VINA RESULT:    -6.615      4.093      5.186
REMARK INTER + INTRA:          -8.904
REMARK INTER:                  -8.133
REMARK INTRA:                  -0.771
REMARK UNBOUND:                -0.741
REMARK  Name = 
REMARK  5 active torsions:
REMARK  status: ('A' for Active; 'I' for Inactive)
REMARK    1  A    between atoms: C_1  and  C_2
REMARK    2  A    between atoms: C_2  and  C_4
REMARK    3  A    between atoms: C_5  and  S_6
REMARK    4  A    between atoms: S_6  and  C_8
REMARK    5  A    between atoms: C_8  and  C_9
REMARK                            x       y       z     vdW  Elec       q    Type
REMARK                         _______ _______ _______ _____ _____    ______ ____
ROOT
ATOM      1  C   UNL     1     -58.462 -45.222 -77.989  0.00  0.00    +0.000 A 
ATOM      2  C   UNL     1     -57.701 -44.196 -77.552  0.00  0.00    +0.000 A 
ATOM      3  N   UNL     1     -56.423 -44.351 -77.042  0.00  0.00    +0.000 N 
ATOM      4  C   UNL     1     -55.924 -45.619 -76.695  0.00  0.00    +0.000 A 
ATOM      5  C   UNL     1     -54.726 -45.749 -75.970  0.00  0.00    +0.000 A 
ATOM      6 BR   UNL     1     -53.768 -44.218 -75.382  0.00  0.00    +0.000 Br
ATOM      7  C   UNL     1     -54.221 -47.006 -75.653  0.00  0.00    +0.000 A 
ATOM      8  C   UNL     1     -54.906 -48.148 -76.064  0.00  0.00    +0.000 A 
ATOM      9  C   UNL     1     -56.085 -48.040 -76.811  0.00  0.00    +0.000 A 
ATOM     10 CL   UNL     1     -56.874 -49.526 -77.203  0.00  0.00    +0.000 Cl
ATOM     11  C   UNL     1     -56.582 -46.773 -77.155  0.00  0.00    +0.000 A 
ATOM     12  C   UNL     1     -57.786 -46.560 -78.005  0.00  0.00    +0.000 A 
ATOM     13  O   UNL     1     -58.207 -47.446 -78.740  0.00  0.00    +0.000 OA
ATOM     14  H   UNL     1     -56.128 -43.596 -76.420  0.00  0.00    +0.000 HD
ENDROOT
BRANCH   1  16
ATOM     15  C   UNL     1     -60.997 -45.657 -77.584  0.00  0.00    +0.000 C 
ATOM     16  C   UNL     1     -59.887 -45.104 -78.448  0.00  0.00    +0.000 C 
ATOM     17  O   UNL     1     -60.173 -44.555 -79.517  0.00  0.00    +0.000 OA
ENDBRANCH   1  16
BRANCH   2  18
ATOM     18  S   UNL     1     -58.371 -42.517 -77.444  0.00  0.00    +0.000 S 
ATOM     19  O   UNL     1     -59.501 -42.650 -76.460  0.00  0.00    +0.000 OA
BRANCH  18  20
ATOM     20  C   UNL     1     -57.011 -41.697 -76.529  0.00  0.00    +0.000 C 
BRANCH  20  21
ATOM     21  C   UNL     1     -57.158 -41.502 -75.038  0.00  0.00    +0.000 A 
ATOM     22  C   UNL     1     -56.625 -42.384 -74.093  0.00  0.00    +0.000 A 
ATOM     23  C   UNL     1     -56.731 -42.112 -72.726  0.00  0.00    +0.000 A 
ATOM     24  C   UNL     1     -57.348 -40.944 -72.284  0.00  0.00    +0.000 A 
ATOM     25  C   UNL     1     -57.857 -40.041 -73.213  0.00  0.00    +0.000 A 
ATOM     26  C   UNL     1     -57.758 -40.315 -74.578  0.00  0.00    +0.000 A 
ENDBRANCH  20  21
ENDBRANCH  18  20
ENDBRANCH   2  18
TORSDOF 4
ENDMDL
MODEL 16
REMARK VINA RESULT:    -6.478      2.878      3.496
REMARK INTER + INTRA:          -8.734
REMARK INTER:                  -8.019
REMARK INTRA:                  -0.715
REMARK UNBOUND:                -0.741
REMARK  Name = 
REMARK  5 active torsions:
REMARK  status: ('A' for Active; 'I' for Inactive)
REMARK    1  A    between atoms: C_1  and  C_2
REMARK    2  A    between atoms: C_2  and  C_4
REMARK    3  A    between atoms: C_5  and  S_6
REMARK    4  A    between atoms: S_6  and  C_8
REMARK    5  A    between atoms: C_8  and  C_9
REMARK                            x       y       z     vdW  Elec       q    Type
REMARK                         _______ _______ _______ _____ _____    ______ ____
ROOT
ATOM      1  C   UNL     1     -54.720 -43.824 -77.105  0.00  0.00    +0.000 A 
ATOM      2  C   UNL     1     -54.158 -43.189 -78.156  0.00  0.00    +0.000 A 
ATOM      3  N   UNL     1     -54.597 -43.329 -79.462  0.00  0.00    +0.000 N 
ATOM      4  C   UNL     1     -55.494 -44.348 -79.825  0.00  0.00    +0.000 A 
ATOM      5  C   UNL     1     -55.757 -44.629 -81.177  0.00  0.00    +0.000 A 
ATOM      6 BR   UNL     1     -54.868 -43.684 -82.563  0.00  0.00    +0.000 Br
ATOM      7  C   UNL     1     -56.668 -45.620 -81.533  0.00  0.00    +0.000 A 
ATOM      8  C   UNL     1     -57.330 -46.336 -80.538  0.00  0.00    +0.000 A 
ATOM      9  C   UNL     1     -57.103 -46.052 -79.186  0.00  0.00    +0.000 A 
ATOM     10 CL   UNL     1     -57.935 -47.053 -78.050  0.00  0.00    +0.000 Cl
ATOM     11  C   UNL     1     -56.206 -45.035 -78.826  0.00  0.00    +0.000 A 
ATOM     12  C   UNL     1     -55.954 -44.614 -77.420  0.00  0.00    +0.000 A 
ATOM     13  O   UNL     1     -56.756 -44.873 -76.529  0.00  0.00    +0.000 OA
ATOM     14  H   UNL     1     -53.886 -43.121 -80.165  0.00  0.00    +0.000 HD
ENDROOT
BRANCH   1  16
ATOM     15  C   UNL     1     -54.670 -42.682 -74.766  0.00  0.00    +0.000 C 
ATOM     16  C   UNL     1     -54.205 -43.779 -75.696  0.00  0.00    +0.000 C 
ATOM     17  O   UNL     1     -53.411 -44.628 -75.275  0.00  0.00    +0.000 OA
ENDBRANCH   1  16
BRANCH   2  18
ATOM     18  S   UNL     1     -52.646 -42.213 -77.956  0.00  0.00    +0.000 S 
ATOM     19  O   UNL     1     -52.082 -42.144 -79.349  0.00  0.00    +0.000 OA
BRANCH  18  20
ATOM     20  C   UNL     1     -53.379 -40.564 -77.638  0.00  0.00    +0.000 C 
BRANCH  20  21
ATOM     21  C   UNL     1     -52.487 -39.466 -77.109  0.00  0.00    +0.000 A 
ATOM     22  C   UNL     1     -52.742 -38.106 -77.311  0.00  0.00    +0.000 A 
ATOM     23  C   UNL     1     -51.919 -37.134 -76.736  0.00  0.00    +0.000 A 
ATOM     24  C   UNL     1     -50.846 -37.505 -75.929  0.00  0.00    +0.000 A 
ATOM     25  C   UNL     1     -50.597 -38.854 -75.692  0.00  0.00    +0.000 A 
ATOM     26  C   UNL     1     -51.413 -39.826 -76.273  0.00  0.00    +0.000 A 
ENDBRANCH  20  21
ENDBRANCH  18  20
ENDBRANCH   2  18
TORSDOF 4
ENDMDL
MODEL 17
REMARK VINA RESULT:    -6.303     14.467     15.549
REMARK INTER + INTRA:          -8.518
REMARK INTER:                  -7.667
REMARK INTRA:                  -0.851
REMARK UNBOUND:                -0.741
REMARK  Name = 
REMARK  5 active torsions:
REMARK  status: ('A' for Active; 'I' for Inactive)
REMARK    1  A    between atoms: C_1  and  C_2
REMARK    2  A    between atoms: C_2  and  C_4
REMARK    3  A    between atoms: C_5  and  S_6
REMARK    4  A    between atoms: S_6  and  C_8
REMARK    5  A    between atoms: C_8  and  C_9
REMARK                            x       y       z     vdW  Elec       q    Type
REMARK                         _______ _______ _______ _____ _____    ______ ____
ROOT
ATOM      1  C   UNL     1     -56.853 -40.671 -61.089  0.00  0.00    +0.000 A 
ATOM      2  C   UNL     1     -56.181 -41.096 -62.181  0.00  0.00    +0.000 A 
ATOM      3  N   UNL     1     -55.407 -42.244 -62.206  0.00  0.00    +0.000 N 
ATOM      4  C   UNL     1     -55.050 -42.911 -61.021  0.00  0.00    +0.000 A 
ATOM      5  C   UNL     1     -54.084 -43.933 -61.031  0.00  0.00    +0.000 A 
ATOM      6 BR   UNL     1     -53.184 -44.411 -62.634  0.00  0.00    +0.000 Br
ATOM      7  C   UNL     1     -53.755 -44.610 -59.861  0.00  0.00    +0.000 A 
ATOM      8  C   UNL     1     -54.392 -44.275 -58.668  0.00  0.00    +0.000 A 
ATOM      9  C   UNL     1     -55.377 -43.281 -58.642  0.00  0.00    +0.000 A 
ATOM     10 CL   UNL     1     -56.044 -42.913 -57.092  0.00  0.00    +0.000 Cl
ATOM     11  C   UNL     1     -55.730 -42.615 -59.827  0.00  0.00    +0.000 A 
ATOM     12  C   UNL     1     -56.813 -41.596 -59.911  0.00  0.00    +0.000 A 
ATOM     13  O   UNL     1     -57.687 -41.529 -59.054  0.00  0.00    +0.000 OA
ATOM     14  H   UNL     1     -54.682 -42.242 -62.925  0.00  0.00    +0.000 HD
ENDROOT
BRANCH   1  16
ATOM     15  C   UNL     1     -59.052 -39.325 -61.450  0.00  0.00    +0.000 C 
ATOM     16  C   UNL     1     -57.612 -39.379 -60.994  0.00  0.00    +0.000 C 
ATOM     17  O   UNL     1     -57.084 -38.356 -60.543  0.00  0.00    +0.000 OA
ENDBRANCH   1  16
BRANCH   2  18
ATOM     18  S   UNL     1     -56.105 -40.087 -63.682  0.00  0.00    +0.000 S 
ATOM     19  O   UNL     1     -54.997 -39.110 -63.395  0.00  0.00    +0.000 OA
BRANCH  18  20
ATOM     20  C   UNL     1     -55.396 -41.311 -64.845  0.00  0.00    +0.000 C 
BRANCH  20  21
ATOM     21  C   UNL     1     -56.330 -42.055 -65.771  0.00  0.00    +0.000 A 
ATOM     22  C   UNL     1     -57.531 -42.631 -65.347  0.00  0.00    +0.000 A 
ATOM     23  C   UNL     1     -58.390 -43.244 -66.264  0.00  0.00    +0.000 A 
ATOM     24  C   UNL     1     -58.074 -43.267 -67.620  0.00  0.00    +0.000 A 
ATOM     25  C   UNL     1     -56.897 -42.671 -68.063  0.00  0.00    +0.000 A 
ATOM     26  C   UNL     1     -56.035 -42.065 -67.147  0.00  0.00    +0.000 A 
ENDBRANCH  20  21
ENDBRANCH  18  20
ENDBRANCH   2  18
TORSDOF 4
ENDMDL
MODEL 18
REMARK VINA RESULT:    -6.293      4.581      6.413
REMARK INTER + INTRA:          -8.506
REMARK INTER:                  -7.624
REMARK INTRA:                  -0.882
REMARK UNBOUND:                -0.741
REMARK  Name = 
REMARK  5 active torsions:
REMARK  status: ('A' for Active; 'I' for Inactive)
REMARK    1  A    between atoms: C_1  and  C_2
REMARK    2  A    between atoms: C_2  and  C_4
REMARK    3  A    between atoms: C_5  and  S_6
REMARK    4  A    between atoms: S_6  and  C_8
REMARK    5  A    between atoms: C_8  and  C_9
REMARK                            x       y       z     vdW  Elec       q    Type
REMARK                         _______ _______ _______ _____ _____    ______ ____
ROOT
ATOM      1  C   UNL     1     -55.235 -42.590 -78.881  0.00  0.00    +0.000 A 
ATOM      2  C   UNL     1     -54.261 -41.655 -78.832  0.00  0.00    +0.000 A 
ATOM      3  N   UNL     1     -53.181 -41.718 -77.969  0.00  0.00    +0.000 N 
ATOM      4  C   UNL     1     -53.154 -42.626 -76.896  0.00  0.00    +0.000 A 
ATOM      5  C   UNL     1     -52.171 -42.532 -75.895  0.00  0.00    +0.000 A 
ATOM      6 BR   UNL     1     -50.877 -41.142 -75.924  0.00  0.00    +0.000 Br
ATOM      7  C   UNL     1     -52.131 -43.450 -74.851  0.00  0.00    +0.000 A 
ATOM      8  C   UNL     1     -53.072 -44.476 -74.798  0.00  0.00    +0.000 A 
ATOM      9  C   UNL     1     -54.042 -44.604 -75.800  0.00  0.00    +0.000 A 
ATOM     10 CL   UNL     1     -55.190 -45.876 -75.586  0.00  0.00    +0.000 Cl
ATOM     11  C   UNL     1     -54.066 -43.695 -76.869  0.00  0.00    +0.000 A 
ATOM     12  C   UNL     1     -55.013 -43.793 -78.015  0.00  0.00    +0.000 A 
ATOM     13  O   UNL     1     -55.581 -44.847 -78.279  0.00  0.00    +0.000 OA
ATOM     14  H   UNL     1     -52.755 -40.812 -77.766  0.00  0.00    +0.000 HD
ENDROOT
BRANCH   1  16
ATOM     15  C   UNL     1     -57.725 -41.880 -79.151  0.00  0.00    +0.000 C 
ATOM     16  C   UNL     1     -56.473 -42.501 -79.726  0.00  0.00    +0.000 C 
ATOM     17  O   UNL     1     -56.487 -42.919 -80.889  0.00  0.00    +0.000 OA
ENDBRANCH   1  16
BRANCH   2  18
ATOM     18  S   UNL     1     -54.385 -40.128 -79.796  0.00  0.00    +0.000 S 
ATOM     19  O   UNL     1     -53.407 -39.204 -79.123  0.00  0.00    +0.000 OA
BRANCH  18  20
ATOM     20  C   UNL     1     -53.569 -40.669 -81.345  0.00  0.00    +0.000 C 
BRANCH  20  21
ATOM     21  C   UNL     1     -54.353 -40.607 -82.635  0.00  0.00    +0.000 A 
ATOM     22  C   UNL     1     -55.601 -39.985 -82.745  0.00  0.00    +0.000 A 
ATOM     23  C   UNL     1     -56.245 -39.897 -83.982  0.00  0.00    +0.000 A 
ATOM     24  C   UNL     1     -55.643 -40.406 -85.130  0.00  0.00    +0.000 A 
ATOM     25  C   UNL     1     -54.388 -41.001 -85.042  0.00  0.00    +0.000 A 
ATOM     26  C   UNL     1     -53.746 -41.097 -83.806  0.00  0.00    +0.000 A 
ENDBRANCH  20  21
ENDBRANCH  18  20
ENDBRANCH   2  18
TORSDOF 4
ENDMDL
MODEL 19
REMARK VINA RESULT:    -6.272      4.276      6.219
REMARK INTER + INTRA:          -8.480
REMARK INTER:                  -7.720
REMARK INTRA:                  -0.759
REMARK UNBOUND:                -0.741
REMARK  Name = 
REMARK  5 active torsions:
REMARK  status: ('A' for Active; 'I' for Inactive)
REMARK    1  A    between atoms: C_1  and  C_2
REMARK    2  A    between atoms: C_2  and  C_4
REMARK    3  A    between atoms: C_5  and  S_6
REMARK    4  A    between atoms: S_6  and  C_8
REMARK    5  A    between atoms: C_8  and  C_9
REMARK                            x       y       z     vdW  Elec       q    Type
REMARK                         _______ _______ _______ _____ _____    ______ ____
ROOT
ATOM      1  C   UNL     1     -57.082 -41.760 -80.093  0.00  0.00    +0.000 A 
ATOM      2  C   UNL     1     -56.823 -41.437 -78.808  0.00  0.00    +0.000 A 
ATOM      3  N   UNL     1     -55.548 -41.225 -78.312  0.00  0.00    +0.000 N 
ATOM      4  C   UNL     1     -54.407 -41.589 -79.048  0.00  0.00    +0.000 A 
ATOM      5  C   UNL     1     -53.133 -41.586 -78.455  0.00  0.00    +0.000 A 
ATOM      6 BR   UNL     1     -52.911 -41.146 -76.621  0.00  0.00    +0.000 Br
ATOM      7  C   UNL     1     -52.004 -41.919 -79.195  0.00  0.00    +0.000 A 
ATOM      8  C   UNL     1     -52.136 -42.255 -80.542  0.00  0.00    +0.000 A 
ATOM      9  C   UNL     1     -53.392 -42.236 -81.158  0.00  0.00    +0.000 A 
ATOM     10 CL   UNL     1     -53.433 -42.735 -82.812  0.00  0.00    +0.000 Cl
ATOM     11  C   UNL     1     -54.529 -41.874 -80.420  0.00  0.00    +0.000 A 
ATOM     12  C   UNL     1     -55.894 -41.758 -81.006  0.00  0.00    +0.000 A 
ATOM     13  O   UNL     1     -56.054 -41.623 -82.214  0.00  0.00    +0.000 OA
ATOM     14  H   UNL     1     -55.463 -41.369 -77.304  0.00  0.00    +0.000 HD
ENDROOT
BRANCH   1  16
ATOM     15  C   UNL     1     -58.883 -43.545 -80.686  0.00  0.00    +0.000 C 
ATOM     16  C   UNL     1     -58.438 -42.101 -80.640  0.00  0.00    +0.000 C 
ATOM     17  O   UNL     1     -59.205 -41.221 -81.047  0.00  0.00    +0.000 OA
ENDBRANCH   1  16
BRANCH   2  18
ATOM     18  S   UNL     1     -58.141 -41.419 -77.567  0.00  0.00    +0.000 S 
ATOM     19  O   UNL     1     -58.082 -42.797 -76.967  0.00  0.00    +0.000 OA
BRANCH  18  20
ATOM     20  C   UNL     1     -57.385 -40.305 -76.324  0.00  0.00    +0.000 C 
BRANCH  20  21
ATOM     21  C   UNL     1     -57.261 -40.790 -74.898  0.00  0.00    +0.000 A 
ATOM     22  C   UNL     1     -58.152 -40.425 -73.884  0.00  0.00    +0.000 A 
ATOM     23  C   UNL     1     -58.028 -40.963 -72.600  0.00  0.00    +0.000 A 
ATOM     24  C   UNL     1     -57.030 -41.893 -72.318  0.00  0.00    +0.000 A 
ATOM     25  C   UNL     1     -56.155 -42.290 -73.324  0.00  0.00    +0.000 A 
ATOM     26  C   UNL     1     -56.272 -41.748 -74.605  0.00  0.00    +0.000 A 
ENDBRANCH  20  21
ENDBRANCH  18  20
ENDBRANCH   2  18
TORSDOF 4
ENDMDL
MODEL 20
REMARK VINA RESULT:    -6.193      4.689      7.407
REMARK INTER + INTRA:          -8.382
REMARK INTER:                  -7.646
REMARK INTRA:                  -0.737
REMARK UNBOUND:                -0.741
REMARK  Name = 
REMARK  5 active torsions:
REMARK  status: ('A' for Active; 'I' for Inactive)
REMARK    1  A    between atoms: C_1  and  C_2
REMARK    2  A    between atoms: C_2  and  C_4
REMARK    3  A    between atoms: C_5  and  S_6
REMARK    4  A    between atoms: S_6  and  C_8
REMARK    5  A    between atoms: C_8  and  C_9
REMARK                            x       y       z     vdW  Elec       q    Type
REMARK                         _______ _______ _______ _____ _____    ______ ____
ROOT
ATOM      1  C   UNL     1     -55.657 -41.583 -79.356  0.00  0.00    +0.000 A 
ATOM      2  C   UNL     1     -56.967 -41.573 -79.025  0.00  0.00    +0.000 A 
ATOM      3  N   UNL     1     -57.428 -41.631 -77.721  0.00  0.00    +0.000 N 
ATOM      4  C   UNL     1     -56.574 -41.971 -76.658  0.00  0.00    +0.000 A 
ATOM      5  C   UNL     1     -57.088 -42.251 -75.379  0.00  0.00    +0.000 A 
ATOM      6 BR   UNL     1     -58.959 -42.238 -75.055  0.00  0.00    +0.000 Br
ATOM      7  C   UNL     1     -56.237 -42.558 -74.323  0.00  0.00    +0.000 A 
ATOM      8  C   UNL     1     -54.859 -42.584 -74.533  0.00  0.00    +0.000 A 
ATOM      9  C   UNL     1     -54.326 -42.279 -75.790  0.00  0.00    +0.000 A 
ATOM     10 CL   UNL     1     -52.609 -42.409 -75.938  0.00  0.00    +0.000 Cl
ATOM     11  C   UNL     1     -55.181 -41.942 -76.851  0.00  0.00    +0.000 A 
ATOM     12  C   UNL     1     -54.704 -41.536 -78.202  0.00  0.00    +0.000 A 
ATOM     13  O   UNL     1     -53.559 -41.131 -78.373  0.00  0.00    +0.000 OA
ATOM     14  H   UNL     1     -58.379 -41.993 -77.631  0.00  0.00    +0.000 HD
ENDROOT
BRANCH   1  16
ATOM     15  C   UNL     1     -54.797 -40.340 -81.476  0.00  0.00    +0.000 C 
ATOM     16  C   UNL     1     -55.124 -41.629 -80.759  0.00  0.00    +0.000 C 
ATOM     17  O   UNL     1     -54.940 -42.705 -81.340  0.00  0.00    +0.000 OA
ENDBRANCH   1  16
BRANCH   2  18
ATOM     18  S   UNL     1     -58.252 -41.654 -80.298  0.00  0.00    +0.000 S 
ATOM     19  O   UNL     1     -58.413 -43.128 -80.546  0.00  0.00    +0.000 OA
BRANCH  18  20
ATOM     20  C   UNL     1     -59.708 -41.158 -79.302  0.00  0.00    +0.000 C 
BRANCH  20  21
ATOM     21  C   UNL     1     -60.423 -39.874 -79.656  0.00  0.00    +0.000 A 
ATOM     22  C   UNL     1     -60.737 -38.887 -78.717  0.00  0.00    +0.000 A 
ATOM     23  C   UNL     1     -61.335 -37.689 -79.117  0.00  0.00    +0.000 A 
ATOM     24  C   UNL     1     -61.603 -37.448 -80.462  0.00  0.00    +0.000 A 
ATOM     25  C   UNL     1     -61.269 -38.408 -81.413  0.00  0.00    +0.000 A 
ATOM     26  C   UNL     1     -60.679 -39.609 -81.014  0.00  0.00    +0.000 A 
ENDBRANCH  20  21
ENDBRANCH  18  20
ENDBRANCH   2  18
TORSDOF 4
ENDMDL
