REMARK VINA RESULT:    -5.997     11.999     14.760
REMARK INTER + INTRA:          -8.804
REMARK INTER:                  -7.800
REMARK INTRA:                  -1.003
REMARK UNBOUND:                -1.054
REMARK  Name = 
REMARK  8 active torsions:
REMARK  status: ('A' for Active; 'I' for Inactive)
REMARK    1  A    between atoms: C_1  and  C_2
REMARK    2  A    between atoms: C_4  and  C_5
REMARK    3  A    between atoms: C_5  and  S_6
REMARK    4  A    between atoms: S_6  and  C_8
REMARK    5  A    between atoms: C_20  and  C_21
REMARK    6  A    between atoms: C_21  and  C_23
REMARK    7  A    between atoms: C_23  and  C_24
REMARK    8  A    between atoms: C_23  and  C_25
REMARK                            x       y       z     vdW  Elec       q    Type
REMARK                         _______ _______ _______ _____ _____    ______ ____
ROOT
ATOM      1  C   UNL     1     -55.907 -41.150 -62.296  0.00  0.00    +0.000 A 
ATOM      2  N   UNL     1     -55.892 -40.216 -61.265  0.00  0.00    +0.000 N 
ATOM      3  C   UNL     1     -55.947 -38.832 -61.521  0.00  0.00    +0.000 A 
ATOM      4  C   UNL     1     -56.347 -37.904 -60.542  0.00  0.00    +0.000 A 
ATOM      5 BR   UNL     1     -56.997 -38.484 -58.857  0.00  0.00    +0.000 Br
ATOM      6  C   UNL     1     -56.318 -36.530 -60.798  0.00  0.00    +0.000 A 
ATOM      7  C   UNL     1     -55.892 -36.064 -62.038  0.00  0.00    +0.000 A 
ATOM      8  C   UNL     1     -55.495 -36.975 -63.034  0.00  0.00    +0.000 A 
ATOM      9 CL   UNL     1     -55.056 -36.283 -64.554  0.00  0.00    +0.000 Cl
ATOM     10  C   UNL     1     -55.518 -38.361 -62.773  0.00  0.00    +0.000 A 
ATOM     11  C   UNL     1     -55.088 -39.400 -63.744  0.00  0.00    +0.000 A 
ATOM     12  O   UNL     1     -54.303 -39.115 -64.643  0.00  0.00    +0.000 OA
ATOM     13  C   UNL     1     -55.626 -40.818 -63.579  0.00  0.00    +0.000 A 
ATOM     14  H   UNL     1     -56.360 -40.535 -60.406  0.00  0.00    +0.000 HD
ENDROOT
BRANCH   1  15
ATOM     15  S   UNL     1     -56.551 -42.768 -61.727  0.00  0.00    +0.000 S 
ATOM     16  O   UNL     1     -57.701 -42.401 -60.829  0.00  0.00    +0.000 OA
BRANCH  15  17
ATOM     17  C   UNL     1     -55.195 -43.420 -60.695  0.00  0.00    +0.000 C 
BRANCH  17  21
ATOM     18  C   UNL     1     -51.519 -45.355 -63.784  0.00  0.00    +0.000 C 
ATOM     19  C   UNL     1     -52.565 -44.985 -62.805  0.00  0.00    +0.000 A 
ATOM     20  C   UNL     1     -53.243 -43.829 -62.493  0.00  0.00    +0.000 A 
ATOM     21  C   UNL     1     -54.145 -44.197 -61.454  0.00  0.00    +0.000 A 
ATOM     22  N   UNL     1     -53.990 -45.498 -61.156  0.00  0.00    +0.000 NA
ATOM     23  O   UNL     1     -53.010 -45.984 -62.000  0.00  0.00    +0.000 OA
ENDBRANCH  17  21
ENDBRANCH  15  17
ENDBRANCH   1  15
BRANCH  13  24
ATOM     24  C   UNL     1     -55.807 -41.628 -64.844  0.00  0.00    +0.000 C 
ATOM     25  O   UNL     1     -54.863 -42.263 -65.312  0.00  0.00    +0.000 OA
BRANCH  24  26
ATOM     26  C   UNL     1     -57.142 -41.610 -65.589  0.00  0.00    +0.000 C 
ATOM     27  C   UNL     1     -56.947 -41.523 -67.100  0.00  0.00    +0.000 C 
ATOM     28  C   UNL     1     -58.011 -42.821 -65.235  0.00  0.00    +0.000 C 
ENDBRANCH  24  26
ENDBRANCH  13  24
TORSDOF 5
