REMARK VINA RESULT:    -5.596     11.042     13.682
REMARK INTER + INTRA:          -8.108
REMARK INTER:                  -7.295
REMARK INTRA:                  -0.813
REMARK UNBOUND:                -0.876
REMARK  Name = 
REMARK  6 active torsions:
REMARK  status: ('A' for Active; 'I' for Inactive)
REMARK    1  A    between atoms: C_1  and  C_2
REMARK    2  A    between atoms: C_4  and  C_5
REMARK    3  A    between atoms: C_5  and  S_6
REMARK    4  A    between atoms: S_6  and  C_8
REMARK    5  A    between atoms: C_20  and  C_21
REMARK    6  A    between atoms: C_21  and  C_23
REMARK                            x       y       z     vdW  Elec       q    Type
REMARK                         _______ _______ _______ _____ _____    ______ ____
ROOT
ATOM      1  C   UNL     1     -57.643 -41.088 -62.737  0.00  0.00    +0.000 A 
ATOM      2  N   UNL     1     -57.141 -39.832 -62.344  0.00  0.00    +0.000 N 
ATOM      3  C   UNL     1     -56.068 -39.227 -63.054  0.00  0.00    +0.000 A 
ATOM      4  C   UNL     1     -55.778 -37.851 -62.981  0.00  0.00    +0.000 A 
ATOM      5 BR   UNL     1     -56.925 -36.656 -62.056  0.00  0.00    +0.000 Br
ATOM      6  C   UNL     1     -54.645 -37.315 -63.608  0.00  0.00    +0.000 A 
ATOM      7  C   UNL     1     -53.799 -38.153 -64.344  0.00  0.00    +0.000 A 
ATOM      8  C   UNL     1     -54.067 -39.519 -64.433  0.00  0.00    +0.000 A 
ATOM      9 CL   UNL     1     -53.005 -40.453 -65.423  0.00  0.00    +0.000 Cl
ATOM     10  C   UNL     1     -55.184 -40.049 -63.770  0.00  0.00    +0.000 A 
ATOM     11  C   UNL     1     -55.500 -41.491 -63.735  0.00  0.00    +0.000 A 
ATOM     12  O   UNL     1     -54.623 -42.344 -63.781  0.00  0.00    +0.000 OA
ATOM     13  C   UNL     1     -56.934 -41.893 -63.560  0.00  0.00    +0.000 A 
ATOM     14  H   UNL     1     -57.892 -39.175 -62.089  0.00  0.00    +0.000 HD
ENDROOT
BRANCH   1  15
ATOM     15  S   UNL     1     -59.416 -41.263 -62.410  0.00  0.00    +0.000 S 
ATOM     16  O   UNL     1     -60.067 -40.972 -63.735  0.00  0.00    +0.000 OA
BRANCH  15  17
ATOM     17  C   UNL     1     -59.949 -39.973 -61.247  0.00  0.00    +0.000 C 
BRANCH  17  21
ATOM     18  C   UNL     1     -64.510 -39.635 -58.946  0.00  0.00    +0.000 C 
ATOM     19  C   UNL     1     -63.195 -39.934 -59.541  0.00  0.00    +0.000 A 
ATOM     20  C   UNL     1     -62.318 -39.245 -60.345  0.00  0.00    +0.000 A 
ATOM     21  C   UNL     1     -61.196 -40.096 -60.458  0.00  0.00    +0.000 A 
ATOM     22  N   UNL     1     -61.419 -41.257 -59.817  0.00  0.00    +0.000 NA
ATOM     23  O   UNL     1     -62.669 -41.149 -59.245  0.00  0.00    +0.000 OA
ENDBRANCH  17  21
ENDBRANCH  15  17
ENDBRANCH   1  15
BRANCH  13  24
ATOM     24  C   UNL     1     -57.359 -43.003 -64.459  0.00  0.00    +0.000 C 
ATOM     25  O   UNL     1     -57.407 -44.150 -64.047  0.00  0.00    +0.000 OA
BRANCH  24  26
ATOM     26  C   UNL     1     -57.767 -42.684 -65.840  0.00  0.00    +0.000 C 
ATOM     27  C   UNL     1     -57.890 -43.794 -66.852  0.00  0.00    +0.000 C 
ATOM     28  C   UNL     1     -56.791 -42.785 -66.988  0.00  0.00    +0.000 C 
ENDBRANCH  24  26
ENDBRANCH  13  24
TORSDOF 5
