REMARK VINA RESULT:    -5.105     15.523     17.058
REMARK INTER + INTRA:          -7.102
REMARK INTER:                  -6.392
REMARK INTRA:                  -0.710
REMARK UNBOUND:                -0.804
REMARK  Name = 
REMARK  6 active torsions:
REMARK  status: ('A' for Active; 'I' for Inactive)
REMARK    1  A    between atoms: C_1  and  C_2
REMARK    2  A    between atoms: C_2  and  C_4
REMARK    3  A    between atoms: C_5  and  S_6
REMARK    4  A    between atoms: S_6  and  C_8
REMARK    5  A    between atoms: C_8  and  C_9
REMARK    6  A    between atoms: C_11  and  C_12
REMARK                            x       y       z     vdW  Elec       q    Type
REMARK                         _______ _______ _______ _____ _____    ______ ____
ROOT
ATOM      1  C   UNL     1     -56.479 -41.587 -76.640  0.00  0.00    +0.000 A 
ATOM      2  C   UNL     1     -57.087 -41.473 -77.841  0.00  0.00    +0.000 A 
ATOM      3  N   UNL     1     -56.401 -41.482 -79.037  0.00  0.00    +0.000 N 
ATOM      4  C   UNL     1     -55.001 -41.545 -79.120  0.00  0.00    +0.000 A 
ATOM      5  C   UNL     1     -54.356 -41.636 -80.366  0.00  0.00    +0.000 A 
ATOM      6 BR   UNL     1     -55.349 -41.608 -81.986  0.00  0.00    +0.000 Br
ATOM      7  C   UNL     1     -52.972 -41.765 -80.451  0.00  0.00    +0.000 A 
ATOM      8  C   UNL     1     -52.212 -41.802 -79.285  0.00  0.00    +0.000 A 
ATOM      9  C   UNL     1     -52.831 -41.734 -78.032  0.00  0.00    +0.000 A 
ATOM     10 CL   UNL     1     -51.760 -41.798 -76.675  0.00  0.00    +0.000 Cl
ATOM     11  C   UNL     1     -54.233 -41.632 -77.945  0.00  0.00    +0.000 A 
ATOM     12  C   UNL     1     -54.973 -41.589 -76.655  0.00  0.00    +0.000 A 
ATOM     13  O   UNL     1     -54.361 -41.517 -75.596  0.00  0.00    +0.000 OA
ATOM     14  H   UNL     1     -56.878 -41.064 -79.834  0.00  0.00    +0.000 HD
ENDROOT
BRANCH   1  16
ATOM     15  C   UNL     1     -57.511 -43.049 -74.767  0.00  0.00    +0.000 C 
ATOM     16  C   UNL     1     -57.188 -41.681 -75.320  0.00  0.00    +0.000 C 
ATOM     17  O   UNL     1     -57.540 -40.674 -74.699  0.00  0.00    +0.000 OA
ENDBRANCH   1  16
BRANCH   2  18
ATOM     18  S   UNL     1     -58.885 -41.163 -77.967  0.00  0.00    +0.000 S 
ATOM     19  O   UNL     1     -59.005 -39.685 -77.708  0.00  0.00    +0.000 OA
BRANCH  18  20
ATOM     20  C   UNL     1     -59.090 -41.374 -79.771  0.00  0.00    +0.000 C 
BRANCH  20  21
ATOM     21  C   UNL     1     -60.414 -40.878 -80.246  0.00  0.00    +0.000 A 
ATOM     22  C   UNL     1     -60.749 -39.616 -80.800  0.00  0.00    +0.000 A 
ATOM     23  C   UNL     1     -62.073 -39.730 -81.146  0.00  0.00    +0.000 A 
ATOM     24  C   UNL     1     -63.058 -38.831 -81.776  0.00  0.00    +0.000 C 
ATOM     25  O   UNL     1     -62.511 -40.975 -80.820  0.00  0.00    +0.000 OA
ATOM     26  N   UNL     1     -61.473 -41.700 -80.261  0.00  0.00    +0.000 NA
ENDBRANCH  20  21
ENDBRANCH  18  20
ENDBRANCH   2  18
TORSDOF 4
