REMARK VINA RESULT:    -7.445      2.475      4.087
REMARK INTER + INTRA:         -10.257
REMARK INTER:                  -9.216
REMARK INTRA:                  -1.041
REMARK UNBOUND:                -0.635
REMARK  Name = 
REMARK  6 active torsions:
REMARK  status: ('A' for Active; 'I' for Inactive)
REMARK    1  A    between atoms: C_1  and  C_2
REMARK    2  A    between atoms: C_4  and  C_5
REMARK    3  A    between atoms: C_5  and  S_6
REMARK    4  A    between atoms: S_6  and  C_8
REMARK    5  A    between atoms: C_20  and  C_21
REMARK    6  A    between atoms: C_21  and  C_23
REMARK                            x       y       z     vdW  Elec       q    Type
REMARK                         _______ _______ _______ _____ _____    ______ ____
ROOT
ATOM      1  C   UNL     1     -55.480 -41.419 -63.272  0.00  0.00    +0.000 A 
ATOM      2  N   UNL     1     -54.137 -41.123 -63.579  0.00  0.00    +0.000 N 
ATOM      3  C   UNL     1     -53.184 -42.167 -63.735  0.00  0.00    +0.000 A 
ATOM      4  C   UNL     1     -51.959 -41.994 -64.406  0.00  0.00    +0.000 A 
ATOM      5 BR   UNL     1     -51.564 -40.380 -65.321  0.00  0.00    +0.000 Br
ATOM      6  C   UNL     1     -51.000 -43.016 -64.441  0.00  0.00    +0.000 A 
ATOM      7  C   UNL     1     -51.273 -44.242 -63.823  0.00  0.00    +0.000 A 
ATOM      8  C   UNL     1     -52.481 -44.437 -63.153  0.00  0.00    +0.000 A 
ATOM      9 CL   UNL     1     -52.749 -46.007 -62.486  0.00  0.00    +0.000 Cl
ATOM     10  C   UNL     1     -53.417 -43.394 -63.094  0.00  0.00    +0.000 A 
ATOM     11  C   UNL     1     -54.681 -43.478 -62.338  0.00  0.00    +0.000 A 
ATOM     12  O   UNL     1     -54.784 -44.161 -61.327  0.00  0.00    +0.000 OA
ATOM     13  C   UNL     1     -55.833 -42.634 -62.798  0.00  0.00    +0.000 A 
ATOM     14  H   UNL     1     -54.054 -40.378 -64.284  0.00  0.00    +0.000 HD
ENDROOT
BRANCH   1  15
ATOM     15  S   UNL     1     -56.638 -40.222 -63.986  0.00  0.00    +0.000 S 
ATOM     16  O   UNL     1     -57.281 -40.964 -65.125  0.00  0.00    +0.000 OA
BRANCH  15  17
ATOM     17  C   UNL     1     -55.710 -38.832 -64.699  0.00  0.00    +0.000 C 
BRANCH  17  21
ATOM     18  C   UNL     1     -54.598 -34.456 -62.282  0.00  0.00    +0.000 C 
ATOM     19  C   UNL     1     -54.817 -35.813 -62.817  0.00  0.00    +0.000 A 
ATOM     20  C   UNL     1     -55.510 -36.331 -63.886  0.00  0.00    +0.000 A 
ATOM     21  C   UNL     1     -55.215 -37.712 -63.865  0.00  0.00    +0.000 A 
ATOM     22  N   UNL     1     -54.446 -38.014 -62.804  0.00  0.00    +0.000 NA
ATOM     23  O   UNL     1     -54.200 -36.823 -62.153  0.00  0.00    +0.000 OA
ENDBRANCH  17  21
ENDBRANCH  15  17
ENDBRANCH   1  15
BRANCH  13  24
ATOM     24  C   UNL     1     -57.138 -43.355 -62.808  0.00  0.00    +0.000 C 
ATOM     25  O   UNL     1     -57.379 -44.188 -63.664  0.00  0.00    +0.000 OA
BRANCH  24  26
ATOM     26  C   UNL     1     -58.112 -43.077 -61.736  0.00  0.00    +0.000 C 
ATOM     27  C   UNL     1     -59.475 -43.718 -61.788  0.00  0.00    +0.000 C 
ATOM     28  C   UNL     1     -59.342 -42.239 -61.994  0.00  0.00    +0.000 C 
ENDBRANCH  24  26
ENDBRANCH  13  24
TORSDOF 5
