REMARK VINA RESULT:    -5.630     12.461     15.164
REMARK INTER + INTRA:          -8.329
REMARK INTER:                  -7.510
REMARK INTRA:                  -0.819
REMARK UNBOUND:                -1.054
REMARK  Name = 
REMARK  8 active torsions:
REMARK  status: ('A' for Active; 'I' for Inactive)
REMARK    1  A    between atoms: C_1  and  C_2
REMARK    2  A    between atoms: C_4  and  C_5
REMARK    3  A    between atoms: C_5  and  S_6
REMARK    4  A    between atoms: S_6  and  C_8
REMARK    5  A    between atoms: C_20  and  C_21
REMARK    6  A    between atoms: C_21  and  C_23
REMARK    7  A    between atoms: C_23  and  C_24
REMARK    8  A    between atoms: C_23  and  C_25
REMARK                            x       y       z     vdW  Elec       q    Type
REMARK                         _______ _______ _______ _____ _____    ______ ____
ROOT
ATOM      1  C   UNL     1     -58.186 -39.995 -62.369  0.00  0.00    +0.000 A 
ATOM      2  N   UNL     1     -58.814 -38.842 -61.909  0.00  0.00    +0.000 N 
ATOM      3  C   UNL     1     -58.300 -37.560 -62.186  0.00  0.00    +0.000 A 
ATOM      4  C   UNL     1     -59.095 -36.401 -62.110  0.00  0.00    +0.000 A 
ATOM      5 BR   UNL     1     -60.961 -36.518 -61.785  0.00  0.00    +0.000 Br
ATOM      6  C   UNL     1     -58.541 -35.134 -62.314  0.00  0.00    +0.000 A 
ATOM      7  C   UNL     1     -57.185 -35.007 -62.601  0.00  0.00    +0.000 A 
ATOM      8  C   UNL     1     -56.374 -36.154 -62.689  0.00  0.00    +0.000 A 
ATOM      9 CL   UNL     1     -54.726 -35.876 -63.122  0.00  0.00    +0.000 Cl
ATOM     10  C   UNL     1     -56.932 -37.431 -62.477  0.00  0.00    +0.000 A 
ATOM     11  C   UNL     1     -56.156 -38.698 -62.515  0.00  0.00    +0.000 A 
ATOM     12  O   UNL     1     -54.946 -38.684 -62.308  0.00  0.00    +0.000 OA
ATOM     13  C   UNL     1     -56.900 -40.001 -62.793  0.00  0.00    +0.000 A 
ATOM     14  H   UNL     1     -59.840 -38.916 -61.860  0.00  0.00    +0.000 HD
ENDROOT
BRANCH   1  15
ATOM     15  S   UNL     1     -59.368 -41.388 -62.522  0.00  0.00    +0.000 S 
ATOM     16  O   UNL     1     -60.716 -40.724 -62.456  0.00  0.00    +0.000 OA
BRANCH  15  17
ATOM     17  C   UNL     1     -59.111 -42.327 -60.979  0.00  0.00    +0.000 C 
BRANCH  17  21
ATOM     18  C   UNL     1     -61.822 -46.733 -61.171  0.00  0.00    +0.000 C 
ATOM     19  C   UNL     1     -61.151 -45.434 -60.941  0.00  0.00    +0.000 A 
ATOM     20  C   UNL     1     -60.110 -44.757 -61.534  0.00  0.00    +0.000 A 
ATOM     21  C   UNL     1     -60.010 -43.530 -60.818  0.00  0.00    +0.000 A 
ATOM     22  N   UNL     1     -60.933 -43.497 -59.840  0.00  0.00    +0.000 NA
ATOM     23  O   UNL     1     -61.641 -44.681 -59.924  0.00  0.00    +0.000 OA
ENDBRANCH  17  21
ENDBRANCH  15  17
ENDBRANCH   1  15
BRANCH  13  24
ATOM     24  C   UNL     1     -56.131 -41.080 -63.522  0.00  0.00    +0.000 C 
ATOM     25  O   UNL     1     -55.833 -42.125 -62.944  0.00  0.00    +0.000 OA
BRANCH  24  26
ATOM     26  C   UNL     1     -55.660 -40.856 -64.959  0.00  0.00    +0.000 C 
ATOM     27  C   UNL     1     -54.159 -41.094 -65.106  0.00  0.00    +0.000 C 
ATOM     28  C   UNL     1     -56.435 -41.721 -65.956  0.00  0.00    +0.000 C 
ENDBRANCH  24  26
ENDBRANCH  13  24
TORSDOF 5
