REMARK VINA RESULT:    -5.818      3.407      5.395
REMARK INTER + INTRA:          -8.149
REMARK INTER:                  -7.522
REMARK INTRA:                  -0.627
REMARK UNBOUND:                -0.971
REMARK  Name = 
REMARK  6 active torsions:
REMARK  status: ('A' for Active; 'I' for Inactive)
REMARK    1  A    between atoms: C_1  and  C_2
REMARK    2  A    between atoms: C_2  and  C_4
REMARK    3  A    between atoms: C_5  and  S_6
REMARK    4  A    between atoms: S_6  and  C_8
REMARK    5  A    between atoms: C_8  and  C_9
REMARK    6  A    between atoms: C_11  and  C_12
REMARK                            x       y       z     vdW  Elec       q    Type
REMARK                         _______ _______ _______ _____ _____    ______ ____
ROOT
ATOM      1  C   UNL     1     -55.635 -41.485 -64.203  0.00  0.00    +0.000 A 
ATOM      2  C   UNL     1     -55.963 -42.548 -63.435  0.00  0.00    +0.000 A 
ATOM      3  N   UNL     1     -55.031 -43.420 -62.907  0.00  0.00    +0.000 N 
ATOM      4  C   UNL     1     -53.660 -43.349 -63.210  0.00  0.00    +0.000 A 
ATOM      5  C   UNL     1     -52.748 -44.247 -62.623  0.00  0.00    +0.000 A 
ATOM      6 BR   UNL     1     -53.341 -45.622 -61.454  0.00  0.00    +0.000 Br
ATOM      7  C   UNL     1     -51.382 -44.151 -62.878  0.00  0.00    +0.000 A 
ATOM      8  C   UNL     1     -50.911 -43.149 -63.723  0.00  0.00    +0.000 A 
ATOM      9  C   UNL     1     -51.795 -42.228 -64.297  0.00  0.00    +0.000 A 
ATOM     10 CL   UNL     1     -51.061 -41.047 -65.325  0.00  0.00    +0.000 Cl
ATOM     11  C   UNL     1     -53.175 -42.308 -64.020  0.00  0.00    +0.000 A 
ATOM     12  C   UNL     1     -54.179 -41.352 -64.566  0.00  0.00    +0.000 A 
ATOM     13  O   UNL     1     -53.829 -40.475 -65.347  0.00  0.00    +0.000 OA
ATOM     14  H   UNL     1     -55.382 -44.345 -62.658  0.00  0.00    +0.000 HD
ENDROOT
BRANCH   1  16
ATOM     15  C   UNL     1     -57.266 -40.731 -66.079  0.00  0.00    +0.000 C 
ATOM     16  C   UNL     1     -56.619 -40.477 -64.735  0.00  0.00    +0.000 C 
ATOM     17  O   UNL     1     -56.884 -39.443 -64.123  0.00  0.00    +0.000 OA
ENDBRANCH   1  16
BRANCH   2  18
ATOM     18  S   UNL     1     -57.704 -43.018 -63.161  0.00  0.00    +0.000 S 
ATOM     19  O   UNL     1     -57.620 -44.481 -62.821  0.00  0.00    +0.000 OA
BRANCH  18  20
ATOM     20  C   UNL     1     -58.002 -42.149 -61.581  0.00  0.00    +0.000 C 
BRANCH  20  21
ATOM     21  C   UNL     1     -59.459 -42.035 -61.279  0.00  0.00    +0.000 A 
ATOM     22  C   UNL     1     -60.308 -40.899 -61.372  0.00  0.00    +0.000 A 
ATOM     23  C   UNL     1     -61.555 -41.371 -61.045  0.00  0.00    +0.000 A 
ATOM     24  C   UNL     1     -62.894 -40.763 -60.934  0.00  0.00    +0.000 C 
ATOM     25  O   UNL     1     -61.469 -42.701 -60.778  0.00  0.00    +0.000 OA
ATOM     26  N   UNL     1     -60.159 -43.123 -60.930  0.00  0.00    +0.000 NA
ENDBRANCH  20  21
ENDBRANCH  18  20
ENDBRANCH   2  18
TORSDOF 4
