REMARK VINA RESULT:    -5.453     13.898     17.123
REMARK INTER + INTRA:          -7.989
REMARK INTER:                  -7.093
REMARK INTRA:                  -0.896
REMARK UNBOUND:                -0.942
REMARK  Name = 
REMARK  8 active torsions:
REMARK  status: ('A' for Active; 'I' for Inactive)
REMARK    1  A    between atoms: C_1  and  C_2
REMARK    2  A    between atoms: C_4  and  C_5
REMARK    3  A    between atoms: C_5  and  S_6
REMARK    4  A    between atoms: S_6  and  C_8
REMARK    5  A    between atoms: C_20  and  C_21
REMARK    6  A    between atoms: C_21  and  C_23
REMARK    7  A    between atoms: C_23  and  C_24
REMARK    8  A    between atoms: C_23  and  C_25
REMARK                            x       y       z     vdW  Elec       q    Type
REMARK                         _______ _______ _______ _____ _____    ______ ____
ROOT
ATOM      1  C   UNL     1     -68.376 -49.466 -54.415  0.00  0.00    +0.000 A 
ATOM      2  N   UNL     1     -67.200 -49.470 -53.668  0.00  0.00    +0.000 N 
ATOM      3  C   UNL     1     -66.661 -50.664 -53.142  0.00  0.00    +0.000 A 
ATOM      4  C   UNL     1     -65.316 -50.760 -52.734  0.00  0.00    +0.000 A 
ATOM      5 CL   UNL     1     -64.213 -49.459 -53.011  0.00  0.00    +0.000 Cl
ATOM      6  C   UNL     1     -64.832 -51.916 -52.121  0.00  0.00    +0.000 A 
ATOM      7  C   UNL     1     -65.691 -52.997 -51.910  0.00  0.00    +0.000 A 
ATOM      8  C   UNL     1     -67.028 -52.926 -52.323  0.00  0.00    +0.000 A 
ATOM      9 CL   UNL     1     -67.972 -54.347 -52.070  0.00  0.00    +0.000 Cl
ATOM     10  C   UNL     1     -67.513 -51.755 -52.926  0.00  0.00    +0.000 A 
ATOM     11  C   UNL     1     -68.926 -51.538 -53.329  0.00  0.00    +0.000 A 
ATOM     12  O   UNL     1     -69.816 -52.131 -52.732  0.00  0.00    +0.000 OA
ATOM     13  C   UNL     1     -69.243 -50.517 -54.415  0.00  0.00    +0.000 A 
ATOM     14  H   UNL     1     -66.510 -48.777 -53.984  0.00  0.00    +0.000 HD
ENDROOT
BRANCH   1  15
ATOM     15  S   UNL     1     -68.443 -48.012 -55.538  0.00  0.00    +0.000 S 
ATOM     16  O   UNL     1     -69.906 -47.663 -55.581  0.00  0.00    +0.000 OA
BRANCH  15  17
ATOM     17  C   UNL     1     -68.002 -48.738 -57.169  0.00  0.00    +0.000 C 
BRANCH  17  21
ATOM     18  C   UNL     1     -64.232 -46.902 -60.195  0.00  0.00    +0.000 C 
ATOM     19  C   UNL     1     -65.220 -47.318 -59.177  0.00  0.00    +0.000 A 
ATOM     20  C   UNL     1     -66.425 -47.982 -59.201  0.00  0.00    +0.000 A 
ATOM     21  C   UNL     1     -66.817 -48.085 -57.837  0.00  0.00    +0.000 A 
ATOM     22  N   UNL     1     -65.908 -47.482 -57.052  0.00  0.00    +0.000 NA
ATOM     23  O   UNL     1     -64.914 -47.013 -57.889  0.00  0.00    +0.000 OA
ENDBRANCH  17  21
ENDBRANCH  15  17
ENDBRANCH   1  15
BRANCH  13  24
ATOM     24  C   UNL     1     -70.431 -50.868 -55.288  0.00  0.00    +0.000 C 
ATOM     25  O   UNL     1     -71.558 -50.450 -54.991  0.00  0.00    +0.000 OA
BRANCH  24  26
ATOM     26  C   UNL     1     -70.326 -51.846 -56.443  0.00  0.00    +0.000 C 
ATOM     27  C   UNL     1     -70.942 -53.175 -56.046  0.00  0.00    +0.000 C 
ATOM     28  C   UNL     1     -70.905 -51.265 -57.727  0.00  0.00    +0.000 C 
ENDBRANCH  24  26
ENDBRANCH  13  24
TORSDOF 5
