REMARK VINA RESULT:    -5.022      4.618      6.414
REMARK INTER + INTRA:          -7.239
REMARK INTER:                  -6.571
REMARK INTRA:                  -0.668
REMARK UNBOUND:                -1.042
REMARK  Name = 
REMARK  6 active torsions:
REMARK  status: ('A' for Active; 'I' for Inactive)
REMARK    1  A    between atoms: C_1  and  C_2
REMARK    2  A    between atoms: C_2  and  C_4
REMARK    3  A    between atoms: C_5  and  S_6
REMARK    4  A    between atoms: S_6  and  C_8
REMARK    5  A    between atoms: C_8  and  C_9
REMARK    6  A    between atoms: C_11  and  C_12
REMARK                            x       y       z     vdW  Elec       q    Type
REMARK                         _______ _______ _______ _____ _____    ______ ____
ROOT
ATOM      1  C   UNL     1     -58.568 -46.113 -78.177  0.00  0.00    +0.000 A 
ATOM      2  C   UNL     1     -58.433 -44.796 -77.901  0.00  0.00    +0.000 A 
ATOM      3  N   UNL     1     -57.323 -44.261 -77.277  0.00  0.00    +0.000 N 
ATOM      4  C   UNL     1     -56.276 -45.048 -76.776  0.00  0.00    +0.000 A 
ATOM      5  C   UNL     1     -55.160 -44.452 -76.156  0.00  0.00    +0.000 A 
ATOM      6 BR   UNL     1     -55.074 -42.568 -75.909  0.00  0.00    +0.000 Br
ATOM      7  C   UNL     1     -54.090 -45.219 -75.711  0.00  0.00    +0.000 A 
ATOM      8  C   UNL     1     -54.114 -46.601 -75.886  0.00  0.00    +0.000 A 
ATOM      9  C   UNL     1     -55.202 -47.217 -76.516  0.00  0.00    +0.000 A 
ATOM     10 CL   UNL     1     -55.095 -48.937 -76.649  0.00  0.00    +0.000 Cl
ATOM     11  C   UNL     1     -56.280 -46.437 -76.984  0.00  0.00    +0.000 A 
ATOM     12  C   UNL     1     -57.468 -47.011 -77.676  0.00  0.00    +0.000 A 
ATOM     13  O   UNL     1     -57.571 -48.225 -77.805  0.00  0.00    +0.000 OA
ATOM     14  H   UNL     1     -57.457 -43.355 -76.826  0.00  0.00    +0.000 HD
ENDROOT
BRANCH   1  16
ATOM     15  C   UNL     1     -60.910 -47.241 -78.104  0.00  0.00    +0.000 C 
ATOM     16  C   UNL     1     -59.740 -46.719 -78.906  0.00  0.00    +0.000 C 
ATOM     17  O   UNL     1     -59.758 -46.822 -80.131  0.00  0.00    +0.000 OA
ENDBRANCH   1  16
BRANCH   2  18
ATOM     18  S   UNL     1     -59.791 -43.619 -78.209  0.00  0.00    +0.000 S 
ATOM     19  O   UNL     1     -60.556 -43.617 -76.911  0.00  0.00    +0.000 OA
BRANCH  18  20
ATOM     20  C   UNL     1     -58.832 -42.063 -78.231  0.00  0.00    +0.000 C 
BRANCH  20  21
ATOM     21  C   UNL     1     -59.659 -40.882 -78.619  0.00  0.00    +0.000 A 
ATOM     22  C   UNL     1     -60.781 -40.794 -79.483  0.00  0.00    +0.000 A 
ATOM     23  C   UNL     1     -61.155 -39.475 -79.435  0.00  0.00    +0.000 A 
ATOM     24  C   UNL     1     -62.201 -38.671 -80.095  0.00  0.00    +0.000 C 
ATOM     25  O   UNL     1     -60.339 -38.814 -78.571  0.00  0.00    +0.000 OA
ATOM     26  N   UNL     1     -59.406 -39.693 -78.052  0.00  0.00    +0.000 NA
ENDBRANCH  20  21
ENDBRANCH  18  20
ENDBRANCH   2  18
TORSDOF 4
