REMARK VINA RESULT:    -4.985      3.878      5.987
REMARK INTER + INTRA:          -7.192
REMARK INTER:                  -6.326
REMARK INTRA:                  -0.866
REMARK UNBOUND:                -1.042
REMARK  Name = 
REMARK  6 active torsions:
REMARK  status: ('A' for Active; 'I' for Inactive)
REMARK    1  A    between atoms: C_1  and  C_2
REMARK    2  A    between atoms: C_2  and  C_4
REMARK    3  A    between atoms: C_5  and  S_6
REMARK    4  A    between atoms: S_6  and  C_8
REMARK    5  A    between atoms: C_8  and  C_9
REMARK    6  A    between atoms: C_11  and  C_12
REMARK                            x       y       z     vdW  Elec       q    Type
REMARK                         _______ _______ _______ _____ _____    ______ ____
ROOT
ATOM      1  C   UNL     1     -54.916 -42.372 -80.414  0.00  0.00    +0.000 A 
ATOM      2  C   UNL     1     -54.852 -42.209 -79.073  0.00  0.00    +0.000 A 
ATOM      3  N   UNL     1     -55.947 -41.895 -78.293  0.00  0.00    +0.000 N 
ATOM      4  C   UNL     1     -57.211 -41.612 -78.831  0.00  0.00    +0.000 A 
ATOM      5  C   UNL     1     -58.300 -41.307 -77.990  0.00  0.00    +0.000 A 
ATOM      6 BR   UNL     1     -58.073 -41.192 -76.106  0.00  0.00    +0.000 Br
ATOM      7  C   UNL     1     -59.570 -41.085 -78.511  0.00  0.00    +0.000 A 
ATOM      8  C   UNL     1     -59.775 -41.172 -79.885  0.00  0.00    +0.000 A 
ATOM      9  C   UNL     1     -58.714 -41.494 -80.742  0.00  0.00    +0.000 A 
ATOM     10 CL   UNL     1     -59.120 -41.552 -82.421  0.00  0.00    +0.000 Cl
ATOM     11  C   UNL     1     -57.430 -41.736 -80.212  0.00  0.00    +0.000 A 
ATOM     12  C   UNL     1     -56.252 -42.096 -81.052  0.00  0.00    +0.000 A 
ATOM     13  O   UNL     1     -56.359 -42.129 -82.272  0.00  0.00    +0.000 OA
ATOM     14  H   UNL     1     -55.744 -41.476 -77.384  0.00  0.00    +0.000 HD
ENDROOT
BRANCH   1  16
ATOM     15  C   UNL     1     -52.904 -41.687 -81.912  0.00  0.00    +0.000 C 
ATOM     16  C   UNL     1     -53.752 -42.770 -81.285  0.00  0.00    +0.000 C 
ATOM     17  O   UNL     1     -53.489 -43.948 -81.517  0.00  0.00    +0.000 OA
ENDBRANCH   1  16
BRANCH   2  18
ATOM     18  S   UNL     1     -53.258 -42.253 -78.188  0.00  0.00    +0.000 S 
ATOM     19  O   UNL     1     -52.774 -40.828 -78.265  0.00  0.00    +0.000 OA
BRANCH  18  20
ATOM     20  C   UNL     1     -53.875 -42.484 -76.483  0.00  0.00    +0.000 C 
BRANCH  20  21
ATOM     21  C   UNL     1     -53.936 -43.920 -76.081  0.00  0.00    +0.000 A 
ATOM     22  C   UNL     1     -54.818 -44.951 -76.498  0.00  0.00    +0.000 A 
ATOM     23  C   UNL     1     -54.386 -46.070 -75.832  0.00  0.00    +0.000 A 
ATOM     24  C   UNL     1     -54.842 -47.470 -75.758  0.00  0.00    +0.000 C 
ATOM     25  O   UNL     1     -53.293 -45.749 -75.089  0.00  0.00    +0.000 OA
ATOM     26  N   UNL     1     -53.003 -44.406 -75.248  0.00  0.00    +0.000 NA
ENDBRANCH  20  21
ENDBRANCH  18  20
ENDBRANCH   2  18
TORSDOF 4
