REMARK VINA RESULT:    -5.570      4.621      7.714
REMARK INTER + INTRA:          -7.592
REMARK INTER:                  -6.971
REMARK INTRA:                  -0.621
REMARK UNBOUND:                -0.720
REMARK  Name = 
REMARK  6 active torsions:
REMARK  status: ('A' for Active; 'I' for Inactive)
REMARK    1  A    between atoms: C_1  and  C_2
REMARK    2  A    between atoms: C_2  and  C_4
REMARK    3  A    between atoms: C_5  and  S_6
REMARK    4  A    between atoms: S_6  and  C_8
REMARK    5  A    between atoms: C_8  and  C_9
REMARK    6  A    between atoms: C_11  and  C_12
REMARK                            x       y       z     vdW  Elec       q    Type
REMARK                         _______ _______ _______ _____ _____    ______ ____
ROOT
ATOM      1  C   UNL     1     -56.432 -41.933 -76.046  0.00  0.00    +0.000 A 
ATOM      2  C   UNL     1     -56.874 -41.624 -77.290  0.00  0.00    +0.000 A 
ATOM      3  N   UNL     1     -56.036 -41.523 -78.386  0.00  0.00    +0.000 N 
ATOM      4  C   UNL     1     -54.634 -41.576 -78.282  0.00  0.00    +0.000 A 
ATOM      5  C   UNL     1     -53.815 -41.401 -79.410  0.00  0.00    +0.000 A 
ATOM      6 BR   UNL     1     -54.566 -40.977 -81.104  0.00  0.00    +0.000 Br
ATOM      7  C   UNL     1     -52.428 -41.521 -79.322  0.00  0.00    +0.000 A 
ATOM      8  C   UNL     1     -51.841 -41.827 -78.096  0.00  0.00    +0.000 A 
ATOM      9  C   UNL     1     -52.632 -42.015 -76.962  0.00  0.00    +0.000 A 
ATOM     10 CL   UNL     1     -51.754 -42.374 -75.514  0.00  0.00    +0.000 Cl
ATOM     11  C   UNL     1     -54.035 -41.903 -77.056  0.00  0.00    +0.000 A 
ATOM     12  C   UNL     1     -54.940 -42.090 -75.894  0.00  0.00    +0.000 A 
ATOM     13  O   UNL     1     -54.463 -42.335 -74.788  0.00  0.00    +0.000 OA
ATOM     14  H   UNL     1     -56.405 -41.018 -79.190  0.00  0.00    +0.000 HD
ENDROOT
BRANCH   1  16
ATOM     15  C   UNL     1     -57.637 -40.884 -73.990  0.00  0.00    +0.000 C 
ATOM     16  C   UNL     1     -57.304 -42.097 -74.829  0.00  0.00    +0.000 C 
ATOM     17  O   UNL     1     -57.744 -43.201 -74.490  0.00  0.00    +0.000 OA
ENDBRANCH   1  16
BRANCH   2  18
ATOM     18  S   UNL     1     -58.617 -41.160 -77.581  0.00  0.00    +0.000 S 
ATOM     19  O   UNL     1     -58.612 -39.659 -77.470  0.00  0.00    +0.000 OA
BRANCH  18  20
ATOM     20  C   UNL     1     -58.753 -41.532 -79.366  0.00  0.00    +0.000 C 
BRANCH  20  21
ATOM     21  C   UNL     1     -59.967 -40.923 -79.997  0.00  0.00    +0.000 A 
ATOM     22  C   UNL     1     -61.225 -40.584 -79.432  0.00  0.00    +0.000 A 
ATOM     23  C   UNL     1     -61.943 -40.044 -80.470  0.00  0.00    +0.000 A 
ATOM     24  C   UNL     1     -63.316 -39.527 -80.626  0.00  0.00    +0.000 C 
ATOM     25  O   UNL     1     -61.158 -40.015 -81.580  0.00  0.00    +0.000 OA
ATOM     26  N   UNL     1     -59.919 -40.555 -81.286  0.00  0.00    +0.000 NA
ENDBRANCH  20  21
ENDBRANCH  18  20
ENDBRANCH   2  18
TORSDOF 4
