REMARK VINA RESULT:    -6.019     12.539     15.455
REMARK INTER + INTRA:          -8.679
REMARK INTER:                  -7.643
REMARK INTRA:                  -1.036
REMARK UNBOUND:                -0.901
REMARK  Name = 
REMARK  6 active torsions:
REMARK  status: ('A' for Active; 'I' for Inactive)
REMARK    1  A    between atoms: C_1  and  C_2
REMARK    2  A    between atoms: C_4  and  C_5
REMARK    3  A    between atoms: C_5  and  S_6
REMARK    4  A    between atoms: S_6  and  C_8
REMARK    5  A    between atoms: C_20  and  C_21
REMARK    6  A    between atoms: C_21  and  C_23
REMARK                            x       y       z     vdW  Elec       q    Type
REMARK                         _______ _______ _______ _____ _____    ______ ____
ROOT
ATOM      1  C   UNL     1     -65.695 -47.302 -55.598  0.00  0.00    +0.000 A 
ATOM      2  N   UNL     1     -66.534 -48.330 -56.069  0.00  0.00    +0.000 N 
ATOM      3  C   UNL     1     -66.787 -49.480 -55.272  0.00  0.00    +0.000 A 
ATOM      4  C   UNL     1     -67.883 -50.337 -55.486  0.00  0.00    +0.000 A 
ATOM      5 BR   UNL     1     -69.222 -49.914 -56.761  0.00  0.00    +0.000 Br
ATOM      6  C   UNL     1     -68.033 -51.520 -54.748  0.00  0.00    +0.000 A 
ATOM      7  C   UNL     1     -67.095 -51.845 -53.762  0.00  0.00    +0.000 A 
ATOM      8  C   UNL     1     -66.002 -51.010 -53.530  0.00  0.00    +0.000 A 
ATOM      9 CL   UNL     1     -64.943 -51.462 -52.244  0.00  0.00    +0.000 Cl
ATOM     10  C   UNL     1     -65.843 -49.847 -54.300  0.00  0.00    +0.000 A 
ATOM     11  C   UNL     1     -64.677 -48.950 -54.186  0.00  0.00    +0.000 A 
ATOM     12  O   UNL     1     -63.571 -49.368 -53.863  0.00  0.00    +0.000 OA
ATOM     13  C   UNL     1     -64.860 -47.508 -54.556  0.00  0.00    +0.000 A 
ATOM     14  H   UNL     1     -67.370 -47.964 -56.545  0.00  0.00    +0.000 HD
ENDROOT
BRANCH   1  15
ATOM     15  S   UNL     1     -66.186 -45.668 -56.209  0.00  0.00    +0.000 S 
ATOM     16  O   UNL     1     -67.234 -45.962 -57.248  0.00  0.00    +0.000 OA
BRANCH  15  17
ATOM     17  C   UNL     1     -64.781 -44.891 -57.059  0.00  0.00    +0.000 C 
BRANCH  17  21
ATOM     18  C   UNL     1     -62.105 -47.233 -60.743  0.00  0.00    +0.000 C 
ATOM     19  C   UNL     1     -62.711 -46.604 -59.555  0.00  0.00    +0.000 A 
ATOM     20  C   UNL     1     -63.853 -45.875 -59.323  0.00  0.00    +0.000 A 
ATOM     21  C   UNL     1     -63.864 -45.667 -57.926  0.00  0.00    +0.000 A 
ATOM     22  N   UNL     1     -62.756 -46.180 -57.364  0.00  0.00    +0.000 NA
ATOM     23  O   UNL     1     -62.039 -46.766 -58.386  0.00  0.00    +0.000 OA
ENDBRANCH  17  21
ENDBRANCH  15  17
ENDBRANCH   1  15
BRANCH  13  24
ATOM     24  C   UNL     1     -64.223 -46.559 -53.600  0.00  0.00    +0.000 C 
ATOM     25  O   UNL     1     -63.415 -45.734 -53.991  0.00  0.00    +0.000 OA
BRANCH  24  26
ATOM     26  C   UNL     1     -64.624 -46.603 -52.181  0.00  0.00    +0.000 C 
ATOM     27  C   UNL     1     -63.910 -45.729 -51.181  0.00  0.00    +0.000 C 
ATOM     28  C   UNL     1     -63.726 -47.216 -51.132  0.00  0.00    +0.000 C 
ENDBRANCH  24  26
ENDBRANCH  13  24
TORSDOF 5
