REMARK VINA RESULT:    -5.472     20.067     22.739
REMARK INTER + INTRA:          -7.945
REMARK INTER:                  -6.990
REMARK INTRA:                  -0.955
REMARK UNBOUND:                -0.874
REMARK  Name = 
REMARK  8 active torsions:
REMARK  status: ('A' for Active; 'I' for Inactive)
REMARK    1  A    between atoms: C_1  and  C_2
REMARK    2  A    between atoms: C_4  and  C_5
REMARK    3  A    between atoms: C_5  and  S_6
REMARK    4  A    between atoms: S_6  and  C_8
REMARK    5  A    between atoms: C_20  and  C_21
REMARK    6  A    between atoms: C_21  and  C_23
REMARK    7  A    between atoms: C_23  and  C_24
REMARK    8  A    between atoms: C_23  and  C_25
REMARK                            x       y       z     vdW  Elec       q    Type
REMARK                         _______ _______ _______ _____ _____    ______ ____
ROOT
ATOM      1  C   UNL     1     -47.144 -25.600 -64.123  0.00  0.00    +0.000 A 
ATOM      2  N   UNL     1     -48.000 -24.824 -64.900  0.00  0.00    +0.000 N 
ATOM      3  C   UNL     1     -49.056 -24.090 -64.326  0.00  0.00    +0.000 A 
ATOM      4  C   UNL     1     -49.658 -23.002 -64.987  0.00  0.00    +0.000 A 
ATOM      5 BR   UNL     1     -48.967 -22.356 -66.631  0.00  0.00    +0.000 Br
ATOM      6  C   UNL     1     -50.755 -22.340 -64.430  0.00  0.00    +0.000 A 
ATOM      7  C   UNL     1     -51.265 -22.753 -63.202  0.00  0.00    +0.000 A 
ATOM      8  C   UNL     1     -50.673 -23.833 -62.521  0.00  0.00    +0.000 A 
ATOM      9 CL   UNL     1     -51.346 -24.206 -60.975  0.00  0.00    +0.000 Cl
ATOM     10  C   UNL     1     -49.570 -24.505 -63.087  0.00  0.00    +0.000 A 
ATOM     11  C   UNL     1     -48.897 -25.675 -62.466  0.00  0.00    +0.000 A 
ATOM     12  O   UNL     1     -49.504 -26.380 -61.666  0.00  0.00    +0.000 OA
ATOM     13  C   UNL     1     -47.456 -25.982 -62.862  0.00  0.00    +0.000 A 
ATOM     14  H   UNL     1     -47.548 -24.399 -65.721  0.00  0.00    +0.000 HD
ENDROOT
BRANCH   1  15
ATOM     15  S   UNL     1     -45.517 -25.825 -64.937  0.00  0.00    +0.000 S 
ATOM     16  O   UNL     1     -44.569 -25.047 -64.065  0.00  0.00    +0.000 OA
BRANCH  15  17
ATOM     17  C   UNL     1     -45.712 -24.934 -66.517  0.00  0.00    +0.000 C 
BRANCH  17  21
ATOM     18  C   UNL     1     -44.295 -26.827 -71.122  0.00  0.00    +0.000 C 
ATOM     19  C   UNL     1     -44.604 -26.451 -69.725  0.00  0.00    +0.000 A 
ATOM     20  C   UNL     1     -45.171 -25.356 -69.114  0.00  0.00    +0.000 A 
ATOM     21  C   UNL     1     -45.191 -25.676 -67.726  0.00  0.00    +0.000 A 
ATOM     22  N   UNL     1     -44.644 -26.888 -67.530  0.00  0.00    +0.000 NA
ATOM     23  O   UNL     1     -44.285 -27.367 -68.775  0.00  0.00    +0.000 OA
ENDBRANCH  17  21
ENDBRANCH  15  17
ENDBRANCH   1  15
BRANCH  13  24
ATOM     24  C   UNL     1     -46.582 -26.620 -61.806  0.00  0.00    +0.000 C 
ATOM     25  O   UNL     1     -46.326 -27.823 -61.857  0.00  0.00    +0.000 OA
BRANCH  24  26
ATOM     26  C   UNL     1     -46.063 -25.793 -60.629  0.00  0.00    +0.000 C 
ATOM     27  C   UNL     1     -46.097 -24.297 -60.931  0.00  0.00    +0.000 C 
ATOM     28  C   UNL     1     -46.829 -26.091 -59.338  0.00  0.00    +0.000 C 
ENDBRANCH  24  26
ENDBRANCH  13  24
TORSDOF 5
