REMARK VINA RESULT:    -5.926     10.295     13.179
REMARK INTER + INTRA:          -8.584
REMARK INTER:                  -7.499
REMARK INTRA:                  -1.085
REMARK UNBOUND:                -0.925
REMARK  Name = 
REMARK  8 active torsions:
REMARK  status: ('A' for Active; 'I' for Inactive)
REMARK    1  A    between atoms: C_1  and  C_2
REMARK    2  A    between atoms: C_4  and  C_5
REMARK    3  A    between atoms: C_5  and  S_6
REMARK    4  A    between atoms: S_6  and  C_8
REMARK    5  A    between atoms: C_20  and  C_21
REMARK    6  A    between atoms: C_21  and  C_23
REMARK    7  A    between atoms: C_23  and  C_24
REMARK    8  A    between atoms: C_23  and  C_25
REMARK                            x       y       z     vdW  Elec       q    Type
REMARK                         _______ _______ _______ _____ _____    ______ ____
ROOT
ATOM      1  C   UNL     1     -57.680 -40.689 -63.483  0.00  0.00    +0.000 A 
ATOM      2  N   UNL     1     -57.117 -39.560 -62.896  0.00  0.00    +0.000 N 
ATOM      3  C   UNL     1     -55.952 -38.956 -63.416  0.00  0.00    +0.000 A 
ATOM      4  C   UNL     1     -55.590 -37.632 -63.099  0.00  0.00    +0.000 A 
ATOM      5 CL   UNL     1     -56.650 -36.623 -62.180  0.00  0.00    +0.000 Cl
ATOM      6  C   UNL     1     -54.383 -37.092 -63.539  0.00  0.00    +0.000 A 
ATOM      7  C   UNL     1     -53.518 -37.872 -64.310  0.00  0.00    +0.000 A 
ATOM      8  C   UNL     1     -53.866 -39.186 -64.648  0.00  0.00    +0.000 A 
ATOM      9 CL   UNL     1     -52.749 -40.027 -65.659  0.00  0.00    +0.000 Cl
ATOM     10  C   UNL     1     -55.077 -39.729 -64.190  0.00  0.00    +0.000 A 
ATOM     11  C   UNL     1     -55.511 -41.131 -64.419  0.00  0.00    +0.000 A 
ATOM     12  O   UNL     1     -54.664 -42.002 -64.573  0.00  0.00    +0.000 OA
ATOM     13  C   UNL     1     -56.996 -41.469 -64.368  0.00  0.00    +0.000 A 
ATOM     14  H   UNL     1     -57.812 -38.910 -62.504  0.00  0.00    +0.000 HD
ENDROOT
BRANCH   1  15
ATOM     15  S   UNL     1     -59.474 -40.811 -63.103  0.00  0.00    +0.000 S 
ATOM     16  O   UNL     1     -59.722 -39.649 -62.180  0.00  0.00    +0.000 OA
BRANCH  15  17
ATOM     17  C   UNL     1     -59.574 -42.346 -62.095  0.00  0.00    +0.000 C 
BRANCH  17  21
ATOM     18  C   UNL     1     -56.456 -42.248 -57.972  0.00  0.00    +0.000 C 
ATOM     19  C   UNL     1     -57.499 -42.222 -59.019  0.00  0.00    +0.000 A 
ATOM     20  C   UNL     1     -57.504 -42.291 -60.393  0.00  0.00    +0.000 A 
ATOM     21  C   UNL     1     -58.879 -42.256 -60.760  0.00  0.00    +0.000 A 
ATOM     22  N   UNL     1     -59.643 -42.140 -59.661  0.00  0.00    +0.000 NA
ATOM     23  O   UNL     1     -58.781 -42.125 -58.581  0.00  0.00    +0.000 OA
ENDBRANCH  17  21
ENDBRANCH  15  17
ENDBRANCH   1  15
BRANCH  13  24
ATOM     24  C   UNL     1     -57.427 -42.576 -65.308  0.00  0.00    +0.000 C 
ATOM     25  O   UNL     1     -57.449 -43.748 -64.909  0.00  0.00    +0.000 OA
BRANCH  24  26
ATOM     26  C   UNL     1     -57.694 -42.329 -66.781  0.00  0.00    +0.000 C 
ATOM     27  C   UNL     1     -56.730 -43.147 -67.620  0.00  0.00    +0.000 C 
ATOM     28  C   UNL     1     -59.158 -42.561 -67.134  0.00  0.00    +0.000 C 
ENDBRANCH  24  26
ENDBRANCH  13  24
TORSDOF 5
