REMARK VINA RESULT:    -6.149     13.496     14.497
REMARK INTER + INTRA:          -8.623
REMARK INTER:                  -8.117
REMARK INTRA:                  -0.505
REMARK UNBOUND:                -1.035
REMARK  Name = 
REMARK  6 active torsions:
REMARK  status: ('A' for Active; 'I' for Inactive)
REMARK    1  A    between atoms: C_1  and  C_2
REMARK    2  A    between atoms: C_2  and  C_4
REMARK    3  A    between atoms: C_5  and  S_6
REMARK    4  A    between atoms: S_6  and  C_8
REMARK    5  A    between atoms: C_8  and  C_9
REMARK    6  A    between atoms: C_11  and  C_12
REMARK                            x       y       z     vdW  Elec       q    Type
REMARK                         _______ _______ _______ _____ _____    ______ ____
ROOT
ATOM      1  C   UNL     1     -57.289 -42.344 -76.229  0.00  0.00    +0.000 A 
ATOM      2  C   UNL     1     -56.141 -43.054 -76.129  0.00  0.00    +0.000 A 
ATOM      3  N   UNL     1     -56.070 -44.354 -76.585  0.00  0.00    +0.000 N 
ATOM      4  C   UNL     1     -57.127 -45.022 -77.211  0.00  0.00    +0.000 A 
ATOM      5  C   UNL     1     -56.993 -46.353 -77.646  0.00  0.00    +0.000 A 
ATOM      6 BR   UNL     1     -55.335 -47.266 -77.497  0.00  0.00    +0.000 Br
ATOM      7  C   UNL     1     -58.067 -47.043 -78.206  0.00  0.00    +0.000 A 
ATOM      8  C   UNL     1     -59.305 -46.414 -78.325  0.00  0.00    +0.000 A 
ATOM      9  C   UNL     1     -59.470 -45.097 -77.897  0.00  0.00    +0.000 A 
ATOM     10 CL   UNL     1     -61.066 -44.452 -78.084  0.00  0.00    +0.000 Cl
ATOM     11  C   UNL     1     -58.373 -44.407 -77.342  0.00  0.00    +0.000 A 
ATOM     12  C   UNL     1     -58.458 -43.000 -76.914  0.00  0.00    +0.000 A 
ATOM     13  O   UNL     1     -59.484 -42.384 -77.171  0.00  0.00    +0.000 OA
ATOM     14  H   UNL     1     -55.142 -44.744 -76.678  0.00  0.00    +0.000 HD
ENDROOT
BRANCH   1  16
ATOM     15  C   UNL     1     -57.950 -40.694 -74.376  0.00  0.00    +0.000 C 
ATOM     16  C   UNL     1     -57.484 -40.922 -75.810  0.00  0.00    +0.000 C 
ATOM     17  O   UNL     1     -57.291 -40.009 -76.568  0.00  0.00    +0.000 OA
ENDBRANCH   1  16
BRANCH   2  18
ATOM     18  S   UNL     1     -54.619 -42.414 -75.313  0.00  0.00    +0.000 S 
ATOM     19  O   UNL     1     -53.971 -43.652 -74.752  0.00  0.00    +0.000 OA
BRANCH  18  20
ATOM     20  C   UNL     1     -53.551 -41.887 -76.735  0.00  0.00    +0.000 C 
BRANCH  20  21
ATOM     21  C   UNL     1     -52.264 -41.287 -76.284  0.00  0.00    +0.000 A 
ATOM     22  C   UNL     1     -51.786 -39.965 -76.457  0.00  0.00    +0.000 A 
ATOM     23  C   UNL     1     -50.530 -39.984 -75.907  0.00  0.00    +0.000 A 
ATOM     24  C   UNL     1     -49.457 -38.989 -75.769  0.00  0.00    +0.000 C 
ATOM     25  O   UNL     1     -50.274 -41.221 -75.406  0.00  0.00    +0.000 OA
ATOM     26  N   UNL     1     -51.369 -42.036 -75.617  0.00  0.00    +0.000 NA
ENDBRANCH  20  21
ENDBRANCH  18  20
ENDBRANCH   2  18
TORSDOF 4
