REMARK VINA RESULT:    -5.769     12.546     15.045
REMARK INTER + INTRA:          -8.328
REMARK INTER:                  -7.644
REMARK INTRA:                  -0.684
REMARK UNBOUND:                -0.873
REMARK  Name = 
REMARK  6 active torsions:
REMARK  status: ('A' for Active; 'I' for Inactive)
REMARK    1  A    between atoms: C_1  and  C_2
REMARK    2  A    between atoms: C_4  and  C_5
REMARK    3  A    between atoms: C_5  and  S_6
REMARK    4  A    between atoms: S_6  and  C_8
REMARK    5  A    between atoms: C_20  and  C_21
REMARK    6  A    between atoms: C_21  and  C_23
REMARK                            x       y       z     vdW  Elec       q    Type
REMARK                         _______ _______ _______ _____ _____    ______ ____
ROOT
ATOM      1  C   UNL     1     -56.915 -38.263 -62.682  0.00  0.00    +0.000 A 
ATOM      2  N   UNL     1     -56.800 -39.600 -63.110  0.00  0.00    +0.000 N 
ATOM      3  C   UNL     1     -55.559 -40.101 -63.592  0.00  0.00    +0.000 A 
ATOM      4  C   UNL     1     -55.261 -41.475 -63.663  0.00  0.00    +0.000 A 
ATOM      5 BR   UNL     1     -56.444 -42.771 -62.944  0.00  0.00    +0.000 Br
ATOM      6  C   UNL     1     -54.071 -41.929 -64.246  0.00  0.00    +0.000 A 
ATOM      7  C   UNL     1     -53.146 -41.004 -64.743  0.00  0.00    +0.000 A 
ATOM      8  C   UNL     1     -53.418 -39.637 -64.682  0.00  0.00    +0.000 A 
ATOM      9 CL   UNL     1     -52.182 -38.576 -65.256  0.00  0.00    +0.000 Cl
ATOM     10  C   UNL     1     -54.629 -39.196 -64.128  0.00  0.00    +0.000 A 
ATOM     11  C   UNL     1     -55.041 -37.780 -64.098  0.00  0.00    +0.000 A 
ATOM     12  O   UNL     1     -54.687 -36.987 -64.961  0.00  0.00    +0.000 OA
ATOM     13  C   UNL     1     -55.982 -37.344 -63.014  0.00  0.00    +0.000 A 
ATOM     14  H   UNL     1     -57.296 -40.252 -62.488  0.00  0.00    +0.000 HD
ENDROOT
BRANCH   1  15
ATOM     15  S   UNL     1     -58.122 -38.061 -61.346  0.00  0.00    +0.000 S 
ATOM     16  O   UNL     1     -58.194 -39.420 -60.705  0.00  0.00    +0.000 OA
BRANCH  15  17
ATOM     17  C   UNL     1     -59.757 -37.707 -62.054  0.00  0.00    +0.000 C 
BRANCH  17  21
ATOM     18  C   UNL     1     -63.735 -35.301 -59.907  0.00  0.00    +0.000 C 
ATOM     19  C   UNL     1     -62.468 -35.861 -60.412  0.00  0.00    +0.000 A 
ATOM     20  C   UNL     1     -62.133 -36.922 -61.219  0.00  0.00    +0.000 A 
ATOM     21  C   UNL     1     -60.732 -36.825 -61.371  0.00  0.00    +0.000 A 
ATOM     22  N   UNL     1     -60.248 -35.807 -60.638  0.00  0.00    +0.000 NA
ATOM     23  O   UNL     1     -61.337 -35.207 -60.042  0.00  0.00    +0.000 OA
ENDBRANCH  17  21
ENDBRANCH  15  17
ENDBRANCH   1  15
BRANCH  13  24
ATOM     24  C   UNL     1     -55.608 -36.046 -62.382  0.00  0.00    +0.000 C 
ATOM     25  O   UNL     1     -54.823 -36.014 -61.450  0.00  0.00    +0.000 OA
BRANCH  24  26
ATOM     26  C   UNL     1     -56.167 -34.798 -62.936  0.00  0.00    +0.000 C 
ATOM     27  C   UNL     1     -56.424 -33.631 -62.019  0.00  0.00    +0.000 C 
ATOM     28  C   UNL     1     -57.580 -34.368 -62.623  0.00  0.00    +0.000 C 
ENDBRANCH  24  26
ENDBRANCH  13  24
TORSDOF 5
