REMARK VINA RESULT:    -5.768      4.074      6.505
REMARK INTER + INTRA:          -8.154
REMARK INTER:                  -7.047
REMARK INTRA:                  -1.107
REMARK UNBOUND:                -0.699
REMARK  Name = 
REMARK  8 active torsions:
REMARK  status: ('A' for Active; 'I' for Inactive)
REMARK    1  A    between atoms: C_1  and  C_2
REMARK    2  A    between atoms: C_4  and  C_5
REMARK    3  A    between atoms: C_5  and  S_6
REMARK    4  A    between atoms: S_6  and  C_8
REMARK    5  A    between atoms: C_20  and  C_21
REMARK    6  A    between atoms: C_21  and  C_23
REMARK    7  A    between atoms: C_23  and  C_24
REMARK    8  A    between atoms: C_23  and  C_25
REMARK                            x       y       z     vdW  Elec       q    Type
REMARK                         _______ _______ _______ _____ _____    ______ ____
ROOT
ATOM      1  C   UNL     1     -56.913 -38.752 -62.806  0.00  0.00    +0.000 A 
ATOM      2  N   UNL     1     -56.606 -40.042 -63.227  0.00  0.00    +0.000 N 
ATOM      3  C   UNL     1     -55.321 -40.380 -63.695  0.00  0.00    +0.000 A 
ATOM      4  C   UNL     1     -54.862 -41.710 -63.727  0.00  0.00    +0.000 A 
ATOM      5 BR   UNL     1     -55.895 -43.117 -62.986  0.00  0.00    +0.000 Br
ATOM      6  C   UNL     1     -53.613 -42.026 -64.269  0.00  0.00    +0.000 A 
ATOM      7  C   UNL     1     -52.802 -41.017 -64.781  0.00  0.00    +0.000 A 
ATOM      8  C   UNL     1     -53.240 -39.680 -64.752  0.00  0.00    +0.000 A 
ATOM      9 CL   UNL     1     -52.119 -38.510 -65.349  0.00  0.00    +0.000 Cl
ATOM     10  C   UNL     1     -54.503 -39.362 -64.212  0.00  0.00    +0.000 A 
ATOM     11  C   UNL     1     -55.069 -37.989 -64.164  0.00  0.00    +0.000 A 
ATOM     12  O   UNL     1     -54.679 -37.136 -64.955  0.00  0.00    +0.000 OA
ATOM     13  C   UNL     1     -56.149 -37.682 -63.131  0.00  0.00    +0.000 A 
ATOM     14  H   UNL     1     -57.108 -40.779 -62.713  0.00  0.00    +0.000 HD
ENDROOT
BRANCH   1  15
ATOM     15  S   UNL     1     -58.309 -38.747 -61.618  0.00  0.00    +0.000 S 
ATOM     16  O   UNL     1     -57.669 -38.355 -60.314  0.00  0.00    +0.000 OA
BRANCH  15  17
ATOM     17  C   UNL     1     -58.784 -40.506 -61.523  0.00  0.00    +0.000 C 
BRANCH  17  21
ATOM     18  C   UNL     1     -56.359 -42.950 -57.657  0.00  0.00    +0.000 C 
ATOM     19  C   UNL     1     -57.222 -42.267 -58.645  0.00  0.00    +0.000 A 
ATOM     20  C   UNL     1     -57.010 -41.613 -59.837  0.00  0.00    +0.000 A 
ATOM     21  C   UNL     1     -58.306 -41.220 -60.280  0.00  0.00    +0.000 A 
ATOM     22  N   UNL     1     -59.230 -41.605 -59.383  0.00  0.00    +0.000 NA
ATOM     23  O   UNL     1     -58.552 -42.258 -58.371  0.00  0.00    +0.000 OA
ENDBRANCH  17  21
ENDBRANCH  15  17
ENDBRANCH   1  15
BRANCH  13  24
ATOM     24  C   UNL     1     -56.194 -36.268 -62.595  0.00  0.00    +0.000 C 
ATOM     25  O   UNL     1     -57.179 -35.560 -62.796  0.00  0.00    +0.000 OA
BRANCH  24  26
ATOM     26  C   UNL     1     -54.989 -35.685 -61.855  0.00  0.00    +0.000 C 
ATOM     27  C   UNL     1     -55.195 -34.211 -61.513  0.00  0.00    +0.000 C 
ATOM     28  C   UNL     1     -54.653 -36.481 -60.591  0.00  0.00    +0.000 C 
ENDBRANCH  24  26
ENDBRANCH  13  24
TORSDOF 5
