REMARK VINA RESULT:    -5.125     10.560     13.130
REMARK INTER + INTRA:          -7.510
REMARK INTER:                  -6.369
REMARK INTRA:                  -1.140
REMARK UNBOUND:                -0.887
REMARK  Name = 
REMARK  8 active torsions:
REMARK  status: ('A' for Active; 'I' for Inactive)
REMARK    1  A    between atoms: C_1  and  C_2
REMARK    2  A    between atoms: C_4  and  C_5
REMARK    3  A    between atoms: C_5  and  S_6
REMARK    4  A    between atoms: S_6  and  C_8
REMARK    5  A    between atoms: C_20  and  C_21
REMARK    6  A    between atoms: C_21  and  C_23
REMARK    7  A    between atoms: C_23  and  C_24
REMARK    8  A    between atoms: C_23  and  C_25
REMARK                            x       y       z     vdW  Elec       q    Type
REMARK                         _______ _______ _______ _____ _____    ______ ____
ROOT
ATOM      1  C   UNL     1     -65.599 -41.138 -70.220  0.00  0.00    +0.000 A 
ATOM      2  N   UNL     1     -66.937 -41.134 -69.839  0.00  0.00    +0.000 N 
ATOM      3  C   UNL     1     -67.348 -40.640 -68.586  0.00  0.00    +0.000 A 
ATOM      4  C   UNL     1     -68.673 -40.238 -68.337  0.00  0.00    +0.000 A 
ATOM      5 BR   UNL     1     -69.956 -40.187 -69.733  0.00  0.00    +0.000 Br
ATOM      6  C   UNL     1     -69.072 -39.825 -67.062  0.00  0.00    +0.000 A 
ATOM      7  C   UNL     1     -68.150 -39.803 -66.020  0.00  0.00    +0.000 A 
ATOM      8  C   UNL     1     -66.818 -40.193 -66.249  0.00  0.00    +0.000 A 
ATOM      9 CL   UNL     1     -65.751 -40.055 -64.899  0.00  0.00    +0.000 Cl
ATOM     10  C   UNL     1     -66.418 -40.617 -67.534  0.00  0.00    +0.000 A 
ATOM     11  C   UNL     1     -65.047 -41.079 -67.870  0.00  0.00    +0.000 A 
ATOM     12  O   UNL     1     -64.314 -41.522 -66.991  0.00  0.00    +0.000 OA
ATOM     13  C   UNL     1     -64.590 -41.008 -69.325  0.00  0.00    +0.000 A 
ATOM     14  H   UNL     1     -67.592 -40.987 -70.620  0.00  0.00    +0.000 HD
ENDROOT
BRANCH   1  15
ATOM     15  S   UNL     1     -65.418 -41.119 -72.043  0.00  0.00    +0.000 S 
ATOM     16  O   UNL     1     -66.742 -40.594 -72.530  0.00  0.00    +0.000 OA
BRANCH  15  17
ATOM     17  C   UNL     1     -65.305 -42.889 -72.472  0.00  0.00    +0.000 C 
BRANCH  17  21
ATOM     18  C   UNL     1     -69.507 -45.114 -74.520  0.00  0.00    +0.000 C 
ATOM     19  C   UNL     1     -68.406 -44.489 -73.754  0.00  0.00    +0.000 A 
ATOM     20  C   UNL     1     -67.117 -44.102 -74.040  0.00  0.00    +0.000 A 
ATOM     21  C   UNL     1     -66.623 -43.534 -72.830  0.00  0.00    +0.000 A 
ATOM     22  N   UNL     1     -67.567 -43.605 -71.876  0.00  0.00    +0.000 NA
ATOM     23  O   UNL     1     -68.674 -44.195 -72.455  0.00  0.00    +0.000 OA
ENDBRANCH  17  21
ENDBRANCH  15  17
ENDBRANCH   1  15
BRANCH  13  24
ATOM     24  C   UNL     1     -63.116 -40.769 -69.564  0.00  0.00    +0.000 C 
ATOM     25  O   UNL     1     -62.666 -39.624 -69.557  0.00  0.00    +0.000 OA
BRANCH  24  26
ATOM     26  C   UNL     1     -62.185 -41.940 -69.881  0.00  0.00    +0.000 C 
ATOM     27  C   UNL     1     -61.462 -41.743 -71.211  0.00  0.00    +0.000 C 
ATOM     28  C   UNL     1     -61.173 -42.187 -68.759  0.00  0.00    +0.000 C 
ENDBRANCH  24  26
ENDBRANCH  13  24
TORSDOF 5
