REMARK VINA RESULT:    -6.273      0.000      0.000
REMARK INTER + INTRA:          -8.710
REMARK INTER:                  -7.740
REMARK INTRA:                  -0.971
REMARK UNBOUND:                -0.971
REMARK  Name = 
REMARK  6 active torsions:
REMARK  status: ('A' for Active; 'I' for Inactive)
REMARK    1  A    between atoms: C_1  and  C_2
REMARK    2  A    between atoms: C_2  and  C_4
REMARK    3  A    between atoms: C_5  and  S_6
REMARK    4  A    between atoms: S_6  and  C_8
REMARK    5  A    between atoms: C_8  and  C_9
REMARK    6  A    between atoms: C_11  and  C_12
REMARK                            x       y       z     vdW  Elec       q    Type
REMARK                         _______ _______ _______ _____ _____    ______ ____
ROOT
ATOM      1  C   UNL     1     -55.497 -41.556 -77.775  0.00  0.00    +0.000 A 
ATOM      2  C   UNL     1     -55.186 -42.705 -77.130  0.00  0.00    +0.000 A 
ATOM      3  N   UNL     1     -54.063 -42.851 -76.335  0.00  0.00    +0.000 N 
ATOM      4  C   UNL     1     -53.037 -41.888 -76.294  0.00  0.00    +0.000 A 
ATOM      5  C   UNL     1     -51.860 -42.117 -75.558  0.00  0.00    +0.000 A 
ATOM      6 BR   UNL     1     -51.581 -43.761 -74.647  0.00  0.00    +0.000 Br
ATOM      7  C   UNL     1     -50.860 -41.150 -75.480  0.00  0.00    +0.000 A 
ATOM      8  C   UNL     1     -51.027 -39.934 -76.136  0.00  0.00    +0.000 A 
ATOM      9  C   UNL     1     -52.201 -39.671 -76.852  0.00  0.00    +0.000 A 
ATOM     10 CL   UNL     1     -52.249 -38.131 -77.638  0.00  0.00    +0.000 Cl
ATOM     11  C   UNL     1     -53.222 -40.640 -76.912  0.00  0.00    +0.000 A 
ATOM     12  C   UNL     1     -54.514 -40.424 -77.620  0.00  0.00    +0.000 A 
ATOM     13  O   UNL     1     -54.762 -39.325 -78.098  0.00  0.00    +0.000 OA
ATOM     14  H   UNL     1     -53.747 -43.815 -76.211  0.00  0.00    +0.000 HD
ENDROOT
BRANCH   1  16
ATOM     15  C   UNL     1     -56.671 -41.750 -80.099  0.00  0.00    +0.000 C 
ATOM     16  C   UNL     1     -56.721 -41.363 -78.635  0.00  0.00    +0.000 C 
ATOM     17  O   UNL     1     -57.765 -40.892 -78.180  0.00  0.00    +0.000 OA
ENDBRANCH   1  16
BRANCH   2  18
ATOM     18  S   UNL     1     -56.140 -44.248 -77.394  0.00  0.00    +0.000 S 
ATOM     19  O   UNL     1     -55.072 -45.262 -77.706  0.00  0.00    +0.000 OA
BRANCH  18  20
ATOM     20  C   UNL     1     -56.657 -44.575 -75.672  0.00  0.00    +0.000 C 
BRANCH  20  21
ATOM     21  C   UNL     1     -57.272 -43.375 -75.020  0.00  0.00    +0.000 A 
ATOM     22  C   UNL     1     -56.823 -42.624 -73.902  0.00  0.00    +0.000 A 
ATOM     23  C   UNL     1     -57.695 -41.565 -73.818  0.00  0.00    +0.000 A 
ATOM     24  C   UNL     1     -57.822 -40.386 -72.940  0.00  0.00    +0.000 C 
ATOM     25  O   UNL     1     -58.621 -41.680 -74.812  0.00  0.00    +0.000 OA
ATOM     26  N   UNL     1     -58.354 -42.806 -75.569  0.00  0.00    +0.000 NA
ENDBRANCH  20  21
ENDBRANCH  18  20
ENDBRANCH   2  18
TORSDOF 4
