REMARK VINA RESULT:    -5.265     13.456     15.575
REMARK INTER + INTRA:          -7.680
REMARK INTER:                  -7.031
REMARK INTRA:                  -0.649
REMARK UNBOUND:                -0.876
REMARK  Name = 
REMARK  6 active torsions:
REMARK  status: ('A' for Active; 'I' for Inactive)
REMARK    1  A    between atoms: C_1  and  C_2
REMARK    2  A    between atoms: C_4  and  C_5
REMARK    3  A    between atoms: C_5  and  S_6
REMARK    4  A    between atoms: S_6  and  C_8
REMARK    5  A    between atoms: C_20  and  C_21
REMARK    6  A    between atoms: C_21  and  C_23
REMARK                            x       y       z     vdW  Elec       q    Type
REMARK                         _______ _______ _______ _____ _____    ______ ____
ROOT
ATOM      1  C   UNL     1     -58.629 -36.645 -61.444  0.00  0.00    +0.000 A 
ATOM      2  N   UNL     1     -57.349 -36.707 -62.027  0.00  0.00    +0.000 N 
ATOM      3  C   UNL     1     -56.913 -37.885 -62.694  0.00  0.00    +0.000 A 
ATOM      4  C   UNL     1     -55.848 -37.897 -63.614  0.00  0.00    +0.000 A 
ATOM      5 BR   UNL     1     -55.020 -36.285 -64.174  0.00  0.00    +0.000 Br
ATOM      6  C   UNL     1     -55.380 -39.098 -64.165  0.00  0.00    +0.000 A 
ATOM      7  C   UNL     1     -55.996 -40.306 -63.818  0.00  0.00    +0.000 A 
ATOM      8  C   UNL     1     -57.055 -40.318 -62.909  0.00  0.00    +0.000 A 
ATOM      9 CL   UNL     1     -57.793 -41.849 -62.603  0.00  0.00    +0.000 Cl
ATOM     10  C   UNL     1     -57.491 -39.114 -62.338  0.00  0.00    +0.000 A 
ATOM     11  C   UNL     1     -58.544 -39.038 -61.306  0.00  0.00    +0.000 A 
ATOM     12  O   UNL     1     -58.731 -39.947 -60.508  0.00  0.00    +0.000 OA
ATOM     13  C   UNL     1     -59.339 -37.770 -61.205  0.00  0.00    +0.000 A 
ATOM     14  H   UNL     1     -57.104 -35.837 -62.520  0.00  0.00    +0.000 HD
ENDROOT
BRANCH   1  15
ATOM     15  S   UNL     1     -59.337 -34.978 -61.490  0.00  0.00    +0.000 S 
ATOM     16  O   UNL     1     -60.117 -34.943 -62.775  0.00  0.00    +0.000 OA
BRANCH  15  17
ATOM     17  C   UNL     1     -58.000 -33.756 -61.633  0.00  0.00    +0.000 C 
BRANCH  17  21
ATOM     18  C   UNL     1     -59.207 -29.736 -64.566  0.00  0.00    +0.000 C 
ATOM     19  C   UNL     1     -58.796 -30.750 -63.578  0.00  0.00    +0.000 A 
ATOM     20  C   UNL     1     -58.879 -32.121 -63.506  0.00  0.00    +0.000 A 
ATOM     21  C   UNL     1     -58.197 -32.456 -62.315  0.00  0.00    +0.000 A 
ATOM     22  N   UNL     1     -57.791 -31.345 -61.675  0.00  0.00    +0.000 NA
ATOM     23  O   UNL     1     -58.167 -30.282 -62.470  0.00  0.00    +0.000 OA
ENDBRANCH  17  21
ENDBRANCH  15  17
ENDBRANCH   1  15
BRANCH  13  24
ATOM     24  C   UNL     1     -60.803 -37.994 -61.031  0.00  0.00    +0.000 C 
ATOM     25  O   UNL     1     -61.379 -37.580 -60.040  0.00  0.00    +0.000 OA
BRANCH  24  26
ATOM     26  C   UNL     1     -61.550 -38.682 -62.101  0.00  0.00    +0.000 C 
ATOM     27  C   UNL     1     -63.004 -39.018 -61.892  0.00  0.00    +0.000 C 
ATOM     28  C   UNL     1     -61.989 -40.119 -61.949  0.00  0.00    +0.000 C 
ENDBRANCH  24  26
ENDBRANCH  13  24
TORSDOF 5
