REMARK VINA RESULT:    -5.804      3.230      6.038
REMARK INTER + INTRA:          -8.132
REMARK INTER:                  -7.058
REMARK INTRA:                  -1.074
REMARK UNBOUND:                -0.971
REMARK  Name = 
REMARK  6 active torsions:
REMARK  status: ('A' for Active; 'I' for Inactive)
REMARK    1  A    between atoms: C_1  and  C_2
REMARK    2  A    between atoms: C_2  and  C_4
REMARK    3  A    between atoms: C_5  and  S_6
REMARK    4  A    between atoms: S_6  and  C_8
REMARK    5  A    between atoms: C_8  and  C_9
REMARK    6  A    between atoms: C_11  and  C_12
REMARK                            x       y       z     vdW  Elec       q    Type
REMARK                         _______ _______ _______ _____ _____    ______ ____
ROOT
ATOM      1  C   UNL     1     -54.820 -43.267 -75.504  0.00  0.00    +0.000 A 
ATOM      2  C   UNL     1     -55.594 -43.558 -76.576  0.00  0.00    +0.000 A 
ATOM      3  N   UNL     1     -56.954 -43.303 -76.625  0.00  0.00    +0.000 N 
ATOM      4  C   UNL     1     -57.690 -42.913 -75.490  0.00  0.00    +0.000 A 
ATOM      5  C   UNL     1     -59.088 -42.767 -75.550  0.00  0.00    +0.000 A 
ATOM      6 BR   UNL     1     -60.042 -43.154 -77.147  0.00  0.00    +0.000 Br
ATOM      7  C   UNL     1     -59.816 -42.342 -74.441  0.00  0.00    +0.000 A 
ATOM      8  C   UNL     1     -59.152 -42.051 -73.254  0.00  0.00    +0.000 A 
ATOM      9  C   UNL     1     -57.758 -42.163 -73.175  0.00  0.00    +0.000 A 
ATOM     10 CL   UNL     1     -57.080 -41.798 -71.626  0.00  0.00    +0.000 Cl
ATOM     11  C   UNL     1     -57.019 -42.572 -74.304  0.00  0.00    +0.000 A 
ATOM     12  C   UNL     1     -55.534 -42.679 -74.314  0.00  0.00    +0.000 A 
ATOM     13  O   UNL     1     -54.897 -42.307 -73.337  0.00  0.00    +0.000 OA
ATOM     14  H   UNL     1     -57.473 -43.874 -77.295  0.00  0.00    +0.000 HD
ENDROOT
BRANCH   1  16
ATOM     15  C   UNL     1     -52.373 -42.451 -75.907  0.00  0.00    +0.000 C 
ATOM     16  C   UNL     1     -53.335 -43.519 -75.428  0.00  0.00    +0.000 C 
ATOM     17  O   UNL     1     -52.879 -44.577 -74.991  0.00  0.00    +0.000 OA
ENDBRANCH   1  16
BRANCH   2  18
ATOM     18  S   UNL     1     -54.940 -44.487 -78.014  0.00  0.00    +0.000 S 
ATOM     19  O   UNL     1     -55.911 -45.629 -78.154  0.00  0.00    +0.000 OA
BRANCH  18  20
ATOM     20  C   UNL     1     -55.356 -43.306 -79.345  0.00  0.00    +0.000 C 
BRANCH  20  21
ATOM     21  C   UNL     1     -54.567 -42.037 -79.253  0.00  0.00    +0.000 A 
ATOM     22  C   UNL     1     -54.991 -40.734 -78.884  0.00  0.00    +0.000 A 
ATOM     23  C   UNL     1     -53.838 -39.987 -78.849  0.00  0.00    +0.000 A 
ATOM     24  C   UNL     1     -53.513 -38.586 -78.518  0.00  0.00    +0.000 C 
ATOM     25  O   UNL     1     -52.788 -40.785 -79.190  0.00  0.00    +0.000 OA
ATOM     26  N   UNL     1     -53.240 -42.069 -79.436  0.00  0.00    +0.000 NA
ENDBRANCH  20  21
ENDBRANCH  18  20
ENDBRANCH   2  18
TORSDOF 4
