=
 OpenBabel09162516353D

 26 28  0  0  0  0  0  0  0  0999 V2000
  -56.9050  -40.8210  -61.8640 C   0  0  0  0  0  0  0  0  0  0  0  0
  -55.9340  -41.5730  -62.4280 C   0  0  0  0  0  0  0  0  0  0  0  0
  -54.8920  -41.0460  -63.1670 N   0  0  0  0  0  0  0  0  0  0  0  0
  -54.8240  -39.6910  -63.5250 C   0  0  0  0  0  0  0  0  0  0  0  0
  -53.7630  -39.2090  -64.3170 C   0  0  0  0  0  0  0  0  0  0  0  0
  -52.4300  -40.3860  -64.9840 Br  0  0  0  0  0  0  0  0  0  0  0  0
  -53.6620  -37.8590  -64.6350 C   0  0  0  0  0  3  0  0  0  0  0  0
  -54.6170  -36.9660  -64.1550 C   0  0  0  0  0  3  0  0  0  0  0  0
  -55.6670  -37.4170  -63.3460 C   0  0  0  0  0  0  0  0  0  0  0  0
  -56.7780  -36.1920  -62.8380 Cl  0  0  0  0  0  0  0  0  0  0  0  0
  -55.7640  -38.7820  -63.0100 C   0  0  0  0  0  0  0  0  0  0  0  0
  -56.8450  -39.3410  -62.1460 C   0  0  0  0  0  0  0  0  0  0  0  0
  -57.7130  -38.6020  -61.6970 O   0  0  0  0  0  0  0  0  0  0  0  0
  -54.4510  -41.6940  -63.8230 H   0  0  0  0  0  0  0  0  0  0  0  0
  -59.3510  -41.7010  -61.6910 C   0  0  0  0  0  1  0  0  0  0  0  0
  -58.0310  -41.3720  -61.0280 C   0  0  0  0  0  0  0  0  0  0  0  0
  -57.9070  -41.5620  -59.8210 O   0  0  0  0  0  0  0  0  0  0  0  0
  -56.0040  -43.3950  -62.3960 S   0  0  1  0  0  0  0  0  0  0  0  0
  -55.6540  -43.7810  -63.8090 O   0  0  0  0  0  0  0  0  0  0  0  0
  -54.5090  -43.7290  -61.3970 C   0  0  0  0  0  2  0  0  0  0  0  0
  -53.4010  -44.3130  -62.2100 C   0  0  0  0  0  0  0  0  0  0  0  0
  -52.3520  -43.6720  -62.9200 C   0  0  0  0  0  3  0  0  0  0  0  0
  -51.6330  -44.7000  -63.4780 C   0  0  0  0  0  0  0  0  0  0  0  0
  -50.4640  -44.7780  -64.3740 C   0  0  0  0  0  1  0  0  0  0  0  0
  -52.1770  -45.8830  -63.0910 O   0  0  0  0  0  0  0  0  0  0  0  0
  -53.2800  -45.6470  -62.2910 N   0  0  0  0  0  0  0  0  0  0  0  0
  1 16  1  0  0  0  0
  2 18  1  0  0  0  0
  2  1  2  0  0  0  0
  3  2  1  0  0  0  0
  4  3  1  0  0  0  0
  4 11  1  0  0  0  0
  5  4  2  0  0  0  0
  6  5  1  0  0  0  0
  7  5  1  0  0  0  0
  7  8  2  0  0  0  0
  8  9  1  0  0  0  0
  9 11  2  0  0  0  0
  9 10  1  0  0  0  0
 11 12  1  0  0  0  0
 12  1  1  0  0  0  0
 12 13  2  0  0  0  0
 14  3  1  0  0  0  0
 15 16  1  0  0  0  0
 16 17  2  0  0  0  0
 18 19  2  6  0  0  0
 18 20  1  0  0  0  0
 21 20  1  0  0  0  0
 22 21  1  0  0  0  0
 23 25  1  0  0  0  0
 23 22  2  0  0  0  0
 24 23  1  0  0  0  0
 25 26  1  0  0  0  0
 26 21  2  0  0  0  0
M  END
>  <MODEL>
1

>  <REMARK>
 VINA RESULT:    -6.638      0.000      0.000
 INTER + INTRA:          -9.031
 INTER:                  -8.190
 INTRA:                  -0.841
 UNBOUND:                -0.841
  Name = 
  6 active torsions:
  status: ('A' for Active; 'I' for Inactive)
    1  A    between atoms: C_1  and  C_2
    2  A    between atoms: C_2  and  C_4
    3  A    between atoms: C_5  and  S_6
    4  A    between atoms: S_6  and  C_8
    5  A    between atoms: C_8  and  C_9
    6  A    between atoms: C_11  and  C_12
                            x       y       z     vdW  Elec       q    Type
                         _______ _______ _______ _____ _____    ______ ____

>  <TORSDO>
F 4

$$$$
