REMARK VINA RESULT:    -4.967      4.235      5.538
REMARK INTER + INTRA:          -7.171
REMARK INTER:                  -6.516
REMARK INTRA:                  -0.655
REMARK UNBOUND:                -1.042
REMARK  Name = 
REMARK  6 active torsions:
REMARK  status: ('A' for Active; 'I' for Inactive)
REMARK    1  A    between atoms: C_1  and  C_2
REMARK    2  A    between atoms: C_2  and  C_4
REMARK    3  A    between atoms: C_5  and  S_6
REMARK    4  A    between atoms: S_6  and  C_8
REMARK    5  A    between atoms: C_8  and  C_9
REMARK    6  A    between atoms: C_11  and  C_12
REMARK                            x       y       z     vdW  Elec       q    Type
REMARK                         _______ _______ _______ _____ _____    ______ ____
ROOT
ATOM      1  C   UNL     1     -53.821 -42.124 -78.749  0.00  0.00    +0.000 A 
ATOM      2  C   UNL     1     -55.087 -41.754 -79.046  0.00  0.00    +0.000 A 
ATOM      3  N   UNL     1     -55.517 -41.480 -80.329  0.00  0.00    +0.000 N 
ATOM      4  C   UNL     1     -54.653 -41.458 -81.434  0.00  0.00    +0.000 A 
ATOM      5  C   UNL     1     -55.144 -41.182 -82.727  0.00  0.00    +0.000 A 
ATOM      6 BR   UNL     1     -56.976 -40.756 -83.002  0.00  0.00    +0.000 Br
ATOM      7  C   UNL     1     -54.306 -41.217 -83.835  0.00  0.00    +0.000 A 
ATOM      8  C   UNL     1     -52.961 -41.537 -83.672  0.00  0.00    +0.000 A 
ATOM      9  C   UNL     1     -52.451 -41.834 -82.402  0.00  0.00    +0.000 A 
ATOM     10 CL   UNL     1     -50.762 -42.199 -82.356  0.00  0.00    +0.000 Cl
ATOM     11  C   UNL     1     -53.304 -41.816 -81.278  0.00  0.00    +0.000 A 
ATOM     12  C   UNL     1     -52.846 -42.132 -79.896  0.00  0.00    +0.000 A 
ATOM     13  O   UNL     1     -51.662 -42.362 -79.683  0.00  0.00    +0.000 OA
ATOM     14  H   UNL     1     -56.357 -40.906 -80.407  0.00  0.00    +0.000 HD
ENDROOT
BRANCH   1  16
ATOM     15  C   UNL     1     -52.562 -41.456 -76.573  0.00  0.00    +0.000 C 
ATOM     16  C   UNL     1     -53.336 -42.483 -77.367  0.00  0.00    +0.000 C 
ATOM     17  O   UNL     1     -53.532 -43.595 -76.881  0.00  0.00    +0.000 OA
ENDBRANCH   1  16
BRANCH   2  18
ATOM     18  S   UNL     1     -56.317 -41.446 -77.736  0.00  0.00    +0.000 S 
ATOM     19  O   UNL     1     -56.110 -39.993 -77.394  0.00  0.00    +0.000 OA
BRANCH  18  20
ATOM     20  C   UNL     1     -57.842 -41.514 -78.741  0.00  0.00    +0.000 C 
BRANCH  20  21
ATOM     21  C   UNL     1     -58.942 -42.268 -78.071  0.00  0.00    +0.000 A 
ATOM     22  C   UNL     1     -59.916 -43.144 -78.617  0.00  0.00    +0.000 A 
ATOM     23  C   UNL     1     -60.643 -43.574 -77.536  0.00  0.00    +0.000 A 
ATOM     24  C   UNL     1     -61.811 -44.457 -77.360  0.00  0.00    +0.000 C 
ATOM     25  O   UNL     1     -60.124 -43.025 -76.406  0.00  0.00    +0.000 OA
ATOM     26  N   UNL     1     -59.054 -42.213 -76.735  0.00  0.00    +0.000 NA
ENDBRANCH  20  21
ENDBRANCH  18  20
ENDBRANCH   2  18
TORSDOF 4
