REMARK VINA RESULT:    -6.184     14.684     16.198
REMARK INTER + INTRA:          -8.480
REMARK INTER:                  -7.786
REMARK INTRA:                  -0.694
REMARK UNBOUND:                -0.850
REMARK  Name = 
REMARK  6 active torsions:
REMARK  status: ('A' for Active; 'I' for Inactive)
REMARK    1  A    between atoms: C_1  and  C_2
REMARK    2  A    between atoms: C_2  and  C_4
REMARK    3  A    between atoms: C_5  and  S_6
REMARK    4  A    between atoms: S_6  and  C_8
REMARK    5  A    between atoms: C_8  and  C_9
REMARK    6  A    between atoms: C_11  and  C_12
REMARK                            x       y       z     vdW  Elec       q    Type
REMARK                         _______ _______ _______ _____ _____    ______ ____
ROOT
ATOM      1  C   UNL     1     -53.403 -41.501 -77.967  0.00  0.00    +0.000 A 
ATOM      2  C   UNL     1     -54.710 -41.242 -78.196  0.00  0.00    +0.000 A 
ATOM      3  N   UNL     1     -55.311 -41.418 -79.425  0.00  0.00    +0.000 N 
ATOM      4  C   UNL     1     -54.614 -41.835 -80.570  0.00  0.00    +0.000 A 
ATOM      5  C   UNL     1     -55.289 -42.096 -81.774  0.00  0.00    +0.000 A 
ATOM      6 BR   UNL     1     -57.169 -41.833 -81.916  0.00  0.00    +0.000 Br
ATOM      7  C   UNL     1     -54.611 -42.565 -82.895  0.00  0.00    +0.000 A 
ATOM      8  C   UNL     1     -53.238 -42.785 -82.823  0.00  0.00    +0.000 A 
ATOM      9  C   UNL     1     -52.544 -42.558 -81.628  0.00  0.00    +0.000 A 
ATOM     10 CL   UNL     1     -50.847 -42.888 -81.688  0.00  0.00    +0.000 Cl
ATOM     11  C   UNL     1     -53.237 -42.107 -80.488  0.00  0.00    +0.000 A 
ATOM     12  C   UNL     1     -52.580 -41.865 -79.176  0.00  0.00    +0.000 A 
ATOM     13  O   UNL     1     -51.358 -41.915 -79.073  0.00  0.00    +0.000 OA
ATOM     14  H   UNL     1     -56.179 -40.908 -79.585  0.00  0.00    +0.000 HD
ENDROOT
BRANCH   1  16
ATOM     15  C   UNL     1     -52.766 -42.645 -75.733  0.00  0.00    +0.000 C 
ATOM     16  C   UNL     1     -52.730 -41.423 -76.626  0.00  0.00    +0.000 C 
ATOM     17  O   UNL     1     -52.195 -40.391 -76.225  0.00  0.00    +0.000 OA
ENDBRANCH   1  16
BRANCH   2  18
ATOM     18  S   UNL     1     -55.758 -40.489 -76.910  0.00  0.00    +0.000 S 
ATOM     19  O   UNL     1     -56.965 -40.010 -77.673  0.00  0.00    +0.000 OA
BRANCH  18  20
ATOM     20  C   UNL     1     -56.284 -41.999 -76.039  0.00  0.00    +0.000 C 
BRANCH  20  21
ATOM     21  C   UNL     1     -56.614 -41.739 -74.607  0.00  0.00    +0.000 A 
ATOM     22  C   UNL     1     -56.100 -42.369 -73.443  0.00  0.00    +0.000 A 
ATOM     23  C   UNL     1     -56.668 -41.683 -72.398  0.00  0.00    +0.000 A 
ATOM     24  C   UNL     1     -56.570 -41.770 -70.929  0.00  0.00    +0.000 C 
ATOM     25  O   UNL     1     -57.479 -40.711 -72.894  0.00  0.00    +0.000 OA
ATOM     26  N   UNL     1     -57.443 -40.738 -74.278  0.00  0.00    +0.000 NA
ENDBRANCH  20  21
ENDBRANCH  18  20
ENDBRANCH   2  18
TORSDOF 4
