REMARK VINA RESULT:    -7.205     12.083     13.575
REMARK INTER + INTRA:         -10.220
REMARK INTER:                  -9.197
REMARK INTRA:                  -1.023
REMARK UNBOUND:                -0.910
REMARK  Name = 
REMARK  6 active torsions:
REMARK  status: ('A' for Active; 'I' for Inactive)
REMARK    1  A    between atoms: C_1  and  C_2
REMARK    2  A    between atoms: C_4  and  C_5
REMARK    3  A    between atoms: C_5  and  S_6
REMARK    4  A    between atoms: S_6  and  C_8
REMARK    5  A    between atoms: C_20  and  C_21
REMARK    6  A    between atoms: C_21  and  C_23
REMARK                            x       y       z     vdW  Elec       q    Type
REMARK                         _______ _______ _______ _____ _____    ______ ____
ROOT
ATOM      1  C   UNL     1     -55.484 -41.408 -63.273  0.00  0.00    +0.000 A 
ATOM      2  N   UNL     1     -54.139 -41.121 -63.576  0.00  0.00    +0.000 N 
ATOM      3  C   UNL     1     -53.191 -42.171 -63.727  0.00  0.00    +0.000 A 
ATOM      4  C   UNL     1     -51.963 -42.007 -64.395  0.00  0.00    +0.000 A 
ATOM      5 BR   UNL     1     -51.554 -40.396 -65.310  0.00  0.00    +0.000 Br
ATOM      6  C   UNL     1     -51.011 -43.035 -64.425  0.00  0.00    +0.000 A 
ATOM      7  C   UNL     1     -51.293 -44.259 -63.807  0.00  0.00    +0.000 A 
ATOM      8  C   UNL     1     -52.505 -44.446 -63.141  0.00  0.00    +0.000 A 
ATOM      9 CL   UNL     1     -52.786 -46.013 -62.474  0.00  0.00    +0.000 Cl
ATOM     10  C   UNL     1     -53.434 -43.396 -63.086  0.00  0.00    +0.000 A 
ATOM     11  C   UNL     1     -54.702 -43.472 -62.335  0.00  0.00    +0.000 A 
ATOM     12  O   UNL     1     -54.812 -44.153 -61.323  0.00  0.00    +0.000 OA
ATOM     13  C   UNL     1     -55.847 -42.620 -62.799  0.00  0.00    +0.000 A 
ATOM     14  H   UNL     1     -54.048 -40.377 -64.281  0.00  0.00    +0.000 HD
ENDROOT
BRANCH   1  15
ATOM     15  S   UNL     1     -56.631 -40.204 -63.992  0.00  0.00    +0.000 S 
ATOM     16  O   UNL     1     -57.271 -40.941 -65.137  0.00  0.00    +0.000 OA
BRANCH  15  17
ATOM     17  C   UNL     1     -55.692 -38.816 -64.695  0.00  0.00    +0.000 C 
BRANCH  17  21
ATOM     18  C   UNL     1     -54.487 -34.441 -62.325  0.00  0.00    +0.000 C 
ATOM     19  C   UNL     1     -54.755 -35.798 -62.835  0.00  0.00    +0.000 A 
ATOM     20  C   UNL     1     -55.386 -36.307 -63.946  0.00  0.00    +0.000 A 
ATOM     21  C   UNL     1     -55.194 -37.703 -63.856  0.00  0.00    +0.000 A 
ATOM     22  N   UNL     1     -54.546 -38.017 -62.720  0.00  0.00    +0.000 NA
ATOM     23  O   UNL     1     -54.273 -36.823 -62.087  0.00  0.00    +0.000 OA
ENDBRANCH  17  21
ENDBRANCH  15  17
ENDBRANCH   1  15
BRANCH  13  24
ATOM     24  C   UNL     1     -57.156 -43.333 -62.813  0.00  0.00    +0.000 C 
ATOM     25  O   UNL     1     -57.395 -44.173 -63.663  0.00  0.00    +0.000 OA
BRANCH  24  26
ATOM     26  C   UNL     1     -58.137 -43.038 -61.752  0.00  0.00    +0.000 C 
ATOM     27  C   UNL     1     -59.488 -43.705 -61.785  0.00  0.00    +0.000 C 
ATOM     28  C   UNL     1     -59.382 -42.232 -62.039  0.00  0.00    +0.000 C 
ENDBRANCH  24  26
ENDBRANCH  13  24
TORSDOF 5
