REMARK VINA RESULT:    -5.644      4.043      5.696
REMARK INTER + INTRA:          -8.237
REMARK INTER:                  -7.025
REMARK INTRA:                  -1.212
REMARK UNBOUND:                -0.943
REMARK  Name = 
REMARK  6 active torsions:
REMARK  status: ('A' for Active; 'I' for Inactive)
REMARK    1  A    between atoms: C_1  and  C_2
REMARK    2  A    between atoms: C_4  and  C_5
REMARK    3  A    between atoms: C_5  and  S_6
REMARK    4  A    between atoms: S_6  and  C_8
REMARK    5  A    between atoms: C_20  and  C_21
REMARK    6  A    between atoms: C_21  and  C_23
REMARK                            x       y       z     vdW  Elec       q    Type
REMARK                         _______ _______ _______ _____ _____    ______ ____
ROOT
ATOM      1  C   UNL     1     -56.417 -44.476 -78.423  0.00  0.00    +0.000 A 
ATOM      2  N   UNL     1     -55.576 -45.406 -77.782  0.00  0.00    +0.000 N 
ATOM      3  C   UNL     1     -54.633 -44.978 -76.808  0.00  0.00    +0.000 A 
ATOM      4  C   UNL     1     -54.052 -45.849 -75.867  0.00  0.00    +0.000 A 
ATOM      5 BR   UNL     1     -54.630 -47.649 -75.712  0.00  0.00    +0.000 Br
ATOM      6  C   UNL     1     -53.045 -45.409 -74.997  0.00  0.00    +0.000 A 
ATOM      7  C   UNL     1     -52.625 -44.075 -75.042  0.00  0.00    +0.000 A 
ATOM      8  C   UNL     1     -53.187 -43.193 -75.965  0.00  0.00    +0.000 A 
ATOM      9 CL   UNL     1     -52.653 -41.552 -75.892  0.00  0.00    +0.000 Cl
ATOM     10  C   UNL     1     -54.169 -43.654 -76.855  0.00  0.00    +0.000 A 
ATOM     11  C   UNL     1     -54.758 -42.819 -77.920  0.00  0.00    +0.000 A 
ATOM     12  O   UNL     1     -54.125 -41.920 -78.458  0.00  0.00    +0.000 OA
ATOM     13  C   UNL     1     -56.143 -43.153 -78.390  0.00  0.00    +0.000 A 
ATOM     14  H   UNL     1     -56.075 -46.269 -77.525  0.00  0.00    +0.000 HD
ENDROOT
BRANCH   1  15
ATOM     15  S   UNL     1     -58.032 -45.177 -78.853  0.00  0.00    +0.000 S 
ATOM     16  O   UNL     1     -58.584 -45.665 -77.541  0.00  0.00    +0.000 OA
BRANCH  15  17
ATOM     17  C   UNL     1     -57.798 -46.630 -79.919  0.00  0.00    +0.000 C 
BRANCH  17  21
ATOM     18  C   UNL     1     -57.404 -51.463 -78.275  0.00  0.00    +0.000 C 
ATOM     19  C   UNL     1     -57.306 -50.064 -78.730  0.00  0.00    +0.000 A 
ATOM     20  C   UNL     1     -58.199 -49.141 -79.219  0.00  0.00    +0.000 A 
ATOM     21  C   UNL     1     -57.443 -47.957 -79.366  0.00  0.00    +0.000 A 
ATOM     22  N   UNL     1     -56.155 -48.178 -79.050  0.00  0.00    +0.000 NA
ATOM     23  O   UNL     1     -56.075 -49.496 -78.651  0.00  0.00    +0.000 OA
ENDBRANCH  17  21
ENDBRANCH  15  17
ENDBRANCH   1  15
BRANCH  13  24
ATOM     24  C   UNL     1     -57.018 -41.960 -78.570  0.00  0.00    +0.000 C 
ATOM     25  O   UNL     1     -57.163 -41.458 -79.671  0.00  0.00    +0.000 OA
BRANCH  24  26
ATOM     26  C   UNL     1     -57.743 -41.426 -77.401  0.00  0.00    +0.000 C 
ATOM     27  C   UNL     1     -58.312 -40.032 -77.455  0.00  0.00    +0.000 C 
ATOM     28  C   UNL     1     -57.154 -40.326 -76.550  0.00  0.00    +0.000 C 
ENDBRANCH  24  26
ENDBRANCH  13  24
TORSDOF 5
