REMARK VINA RESULT:    -5.757      3.688      7.351
REMARK INTER + INTRA:          -7.747
REMARK INTER:                  -7.030
REMARK INTRA:                  -0.717
REMARK UNBOUND:                -0.644
REMARK  Name = 
REMARK  6 active torsions:
REMARK  status: ('A' for Active; 'I' for Inactive)
REMARK    1  A    between atoms: C_1  and  C_2
REMARK    2  A    between atoms: C_2  and  C_4
REMARK    3  A    between atoms: C_5  and  S_6
REMARK    4  A    between atoms: S_6  and  C_8
REMARK    5  A    between atoms: C_8  and  C_9
REMARK    6  A    between atoms: C_11  and  C_12
REMARK                            x       y       z     vdW  Elec       q    Type
REMARK                         _______ _______ _______ _____ _____    ______ ____
ROOT
ATOM      1  C   UNL     1     -54.116 -42.801 -76.798  0.00  0.00    +0.000 A 
ATOM      2  C   UNL     1     -54.509 -43.788 -77.635  0.00  0.00    +0.000 A 
ATOM      3  N   UNL     1     -54.630 -43.621 -79.000  0.00  0.00    +0.000 N 
ATOM      4  C   UNL     1     -54.505 -42.372 -79.630  0.00  0.00    +0.000 A 
ATOM      5  C   UNL     1     -54.663 -42.246 -81.023  0.00  0.00    +0.000 A 
ATOM      6 BR   UNL     1     -55.110 -43.748 -82.097  0.00  0.00    +0.000 Br
ATOM      7  C   UNL     1     -54.496 -41.021 -81.659  0.00  0.00    +0.000 A 
ATOM      8  C   UNL     1     -54.156 -39.897 -80.904  0.00  0.00    +0.000 A 
ATOM      9  C   UNL     1     -53.972 -39.999 -79.521  0.00  0.00    +0.000 A 
ATOM     10 CL   UNL     1     -53.576 -38.516 -78.724  0.00  0.00    +0.000 Cl
ATOM     11  C   UNL     1     -54.119 -41.246 -78.882  0.00  0.00    +0.000 A 
ATOM     12  C   UNL     1     -53.904 -41.446 -77.422  0.00  0.00    +0.000 A 
ATOM     13  O   UNL     1     -53.589 -40.496 -76.719  0.00  0.00    +0.000 OA
ATOM     14  H   UNL     1     -55.244 -44.290 -79.472  0.00  0.00    +0.000 HD
ENDROOT
BRANCH   1  16
ATOM     15  C   UNL     1     -55.068 -42.629 -74.379  0.00  0.00    +0.000 C 
ATOM     16  C   UNL     1     -53.924 -42.966 -75.311  0.00  0.00    +0.000 C 
ATOM     17  O   UNL     1     -52.857 -43.353 -74.835  0.00  0.00    +0.000 OA
ENDBRANCH   1  16
BRANCH   2  18
ATOM     18  S   UNL     1     -55.084 -45.400 -77.004  0.00  0.00    +0.000 S 
ATOM     19  O   UNL     1     -56.484 -45.108 -76.531  0.00  0.00    +0.000 OA
BRANCH  18  20
ATOM     20  C   UNL     1     -55.268 -46.296 -78.589  0.00  0.00    +0.000 C 
BRANCH  20  21
ATOM     21  C   UNL     1     -56.227 -47.432 -78.458  0.00  0.00    +0.000 A 
ATOM     22  C   UNL     1     -56.295 -48.436 -77.456  0.00  0.00    +0.000 A 
ATOM     23  C   UNL     1     -57.381 -49.201 -77.804  0.00  0.00    +0.000 A 
ATOM     24  C   UNL     1     -58.025 -50.402 -77.242  0.00  0.00    +0.000 C 
ATOM     25  O   UNL     1     -57.944 -48.684 -78.929  0.00  0.00    +0.000 OA
ATOM     26  N   UNL     1     -57.230 -47.570 -79.337  0.00  0.00    +0.000 NA
ENDBRANCH  20  21
ENDBRANCH  18  20
ENDBRANCH   2  18
TORSDOF 4
