REMARK VINA RESULT:    -6.227      4.053      6.769
REMARK INTER + INTRA:          -8.946
REMARK INTER:                  -8.229
REMARK INTRA:                  -0.717
REMARK UNBOUND:                -0.899
REMARK  Name = 
REMARK  6 active torsions:
REMARK  status: ('A' for Active; 'I' for Inactive)
REMARK    1  A    between atoms: C_1  and  C_2
REMARK    2  A    between atoms: C_4  and  C_5
REMARK    3  A    between atoms: C_5  and  S_6
REMARK    4  A    between atoms: S_6  and  C_8
REMARK    5  A    between atoms: C_20  and  C_21
REMARK    6  A    between atoms: C_21  and  C_23
REMARK                            x       y       z     vdW  Elec       q    Type
REMARK                         _______ _______ _______ _____ _____    ______ ____
ROOT
ATOM      1  C   UNL     1     -57.158 -41.077 -77.392  0.00  0.00    +0.000 A 
ATOM      2  N   UNL     1     -56.145 -40.540 -78.209  0.00  0.00    +0.000 N 
ATOM      3  C   UNL     1     -54.817 -41.046 -78.143  0.00  0.00    +0.000 A 
ATOM      4  C   UNL     1     -53.869 -40.849 -79.163  0.00  0.00    +0.000 A 
ATOM      5 BR   UNL     1     -54.353 -40.034 -80.806  0.00  0.00    +0.000 Br
ATOM      6  C   UNL     1     -52.540 -41.270 -79.009  0.00  0.00    +0.000 A 
ATOM      7  C   UNL     1     -52.152 -41.922 -77.833  0.00  0.00    +0.000 A 
ATOM      8  C   UNL     1     -53.075 -42.130 -76.808  0.00  0.00    +0.000 A 
ATOM      9 CL   UNL     1     -52.516 -43.007 -75.430  0.00  0.00    +0.000 Cl
ATOM     10  C   UNL     1     -54.393 -41.672 -76.960  0.00  0.00    +0.000 A 
ATOM     11  C   UNL     1     -55.415 -41.770 -75.900  0.00  0.00    +0.000 A 
ATOM     12  O   UNL     1     -55.116 -41.737 -74.712  0.00  0.00    +0.000 OA
ATOM     13  C   UNL     1     -56.855 -41.833 -76.314  0.00  0.00    +0.000 A 
ATOM     14  H   UNL     1     -56.472 -40.360 -79.168  0.00  0.00    +0.000 HD
ENDROOT
BRANCH   1  15
ATOM     15  S   UNL     1     -58.789 -41.026 -78.181  0.00  0.00    +0.000 S 
ATOM     16  O   UNL     1     -58.525 -41.444 -79.602  0.00  0.00    +0.000 OA
BRANCH  15  17
ATOM     17  C   UNL     1     -59.389 -39.312 -78.222  0.00  0.00    +0.000 C 
BRANCH  17  21
ATOM     18  C   UNL     1     -63.714 -37.231 -80.006  0.00  0.00    +0.000 C 
ATOM     19  C   UNL     1     -62.515 -37.997 -79.617  0.00  0.00    +0.000 A 
ATOM     20  C   UNL     1     -61.412 -37.736 -78.840  0.00  0.00    +0.000 A 
ATOM     21  C   UNL     1     -60.698 -38.954 -78.817  0.00  0.00    +0.000 A 
ATOM     22  N   UNL     1     -61.302 -39.870 -79.595  0.00  0.00    +0.000 NA
ATOM     23  O   UNL     1     -62.439 -39.266 -80.091  0.00  0.00    +0.000 OA
ENDBRANCH  17  21
ENDBRANCH  15  17
ENDBRANCH   1  15
BRANCH  13  24
ATOM     24  C   UNL     1     -57.650 -42.849 -75.567  0.00  0.00    +0.000 C 
ATOM     25  O   UNL     1     -57.466 -44.040 -75.755  0.00  0.00    +0.000 OA
BRANCH  24  26
ATOM     26  C   UNL     1     -58.627 -42.390 -74.563  0.00  0.00    +0.000 C 
ATOM     27  C   UNL     1     -58.464 -41.028 -73.938  0.00  0.00    +0.000 C 
ATOM     28  C   UNL     1     -58.250 -42.256 -73.107  0.00  0.00    +0.000 C 
ENDBRANCH  24  26
ENDBRANCH  13  24
TORSDOF 5
