REMARK VINA RESULT:    -7.078     10.160     12.559
REMARK INTER + INTRA:         -10.016
REMARK INTER:                  -9.033
REMARK INTRA:                  -0.983
REMARK UNBOUND:                -0.869
REMARK  Name = 
REMARK  6 active torsions:
REMARK  status: ('A' for Active; 'I' for Inactive)
REMARK    1  A    between atoms: C_1  and  C_2
REMARK    2  A    between atoms: C_4  and  C_5
REMARK    3  A    between atoms: C_5  and  S_6
REMARK    4  A    between atoms: S_6  and  C_8
REMARK    5  A    between atoms: C_20  and  C_21
REMARK    6  A    between atoms: C_21  and  C_23
REMARK                            x       y       z     vdW  Elec       q    Type
REMARK                         _______ _______ _______ _____ _____    ______ ____
ROOT
ATOM      1  C   UNL     1     -55.710 -42.887 -76.618  0.00  0.00    +0.000 A 
ATOM      2  N   UNL     1     -54.357 -43.147 -76.325  0.00  0.00    +0.000 N 
ATOM      3  C   UNL     1     -53.409 -42.088 -76.284  0.00  0.00    +0.000 A 
ATOM      4  C   UNL     1     -52.165 -42.195 -75.635  0.00  0.00    +0.000 A 
ATOM      5 BR   UNL     1     -51.730 -43.724 -74.599  0.00  0.00    +0.000 Br
ATOM      6  C   UNL     1     -51.215 -41.167 -75.712  0.00  0.00    +0.000 A 
ATOM      7  C   UNL     1     -51.516 -39.999 -76.423  0.00  0.00    +0.000 A 
ATOM      8  C   UNL     1     -52.743 -39.869 -77.073  0.00  0.00    +0.000 A 
ATOM      9 CL   UNL     1     -53.045 -38.363 -77.862  0.00  0.00    +0.000 Cl
ATOM     10  C   UNL     1     -53.671 -40.920 -77.018  0.00  0.00    +0.000 A 
ATOM     11  C   UNL     1     -54.956 -40.908 -77.743  0.00  0.00    +0.000 A 
ATOM     12  O   UNL     1     -55.093 -40.313 -78.804  0.00  0.00    +0.000 OA
ATOM     13  C   UNL     1     -56.087 -41.719 -77.182  0.00  0.00    +0.000 A 
ATOM     14  H   UNL     1     -54.248 -43.830 -75.563  0.00  0.00    +0.000 HD
ENDROOT
BRANCH   1  15
ATOM     15  S   UNL     1     -56.836 -44.029 -75.774  0.00  0.00    +0.000 S 
ATOM     16  O   UNL     1     -57.575 -44.713 -76.892  0.00  0.00    +0.000 OA
BRANCH  15  17
ATOM     17  C   UNL     1     -58.056 -43.080 -74.817  0.00  0.00    +0.000 C 
BRANCH  17  21
ATOM     18  C   UNL     1     -55.910 -40.756 -70.790  0.00  0.00    +0.000 C 
ATOM     19  C   UNL     1     -56.690 -41.289 -71.923  0.00  0.00    +0.000 A 
ATOM     20  C   UNL     1     -56.458 -42.230 -72.898  0.00  0.00    +0.000 A 
ATOM     21  C   UNL     1     -57.677 -42.313 -73.608  0.00  0.00    +0.000 A 
ATOM     22  N   UNL     1     -58.563 -41.421 -73.130  0.00  0.00    +0.000 NA
ATOM     23  O   UNL     1     -57.941 -40.786 -72.076  0.00  0.00    +0.000 OA
ENDBRANCH  17  21
ENDBRANCH  15  17
ENDBRANCH   1  15
BRANCH  13  24
ATOM     24  C   UNL     1     -57.398 -41.009 -77.196  0.00  0.00    +0.000 C 
ATOM     25  O   UNL     1     -57.552 -39.980 -76.561  0.00  0.00    +0.000 OA
BRANCH  24  26
ATOM     26  C   UNL     1     -58.489 -41.547 -78.029  0.00  0.00    +0.000 C 
ATOM     27  C   UNL     1     -58.156 -42.293 -79.296  0.00  0.00    +0.000 C 
ATOM     28  C   UNL     1     -58.813 -40.948 -79.377  0.00  0.00    +0.000 C 
ENDBRANCH  24  26
ENDBRANCH  13  24
TORSDOF 5
