REMARK VINA RESULT:    -6.348     10.945     13.205
REMARK INTER + INTRA:          -9.123
REMARK INTER:                  -7.869
REMARK INTRA:                  -1.255
REMARK UNBOUND:                -0.920
REMARK  Name = 
REMARK  8 active torsions:
REMARK  status: ('A' for Active; 'I' for Inactive)
REMARK    1  A    between atoms: C_1  and  C_2
REMARK    2  A    between atoms: C_4  and  C_5
REMARK    3  A    between atoms: C_5  and  S_6
REMARK    4  A    between atoms: S_6  and  C_8
REMARK    5  A    between atoms: C_20  and  C_21
REMARK    6  A    between atoms: C_21  and  C_23
REMARK    7  A    between atoms: C_23  and  C_24
REMARK    8  A    between atoms: C_23  and  C_25
REMARK                            x       y       z     vdW  Elec       q    Type
REMARK                         _______ _______ _______ _____ _____    ______ ____
ROOT
ATOM      1  C   UNL     1     -57.426 -40.693 -63.316  0.00  0.00    +0.000 A 
ATOM      2  N   UNL     1     -56.957 -39.455 -62.886  0.00  0.00    +0.000 N 
ATOM      3  C   UNL     1     -55.815 -38.859 -63.456  0.00  0.00    +0.000 A 
ATOM      4  C   UNL     1     -55.562 -37.478 -63.356  0.00  0.00    +0.000 A 
ATOM      5 BR   UNL     1     -56.835 -36.306 -62.580  0.00  0.00    +0.000 Br
ATOM      6  C   UNL     1     -54.382 -36.925 -63.863  0.00  0.00    +0.000 A 
ATOM      7  C   UNL     1     -53.442 -37.743 -64.482  0.00  0.00    +0.000 A 
ATOM      8  C   UNL     1     -53.680 -39.125 -64.600  0.00  0.00    +0.000 A 
ATOM      9 CL   UNL     1     -52.476 -40.024 -65.450  0.00  0.00    +0.000 Cl
ATOM     10  C   UNL     1     -54.866 -39.684 -64.082  0.00  0.00    +0.000 A 
ATOM     11  C   UNL     1     -55.195 -41.132 -64.126  0.00  0.00    +0.000 A 
ATOM     12  O   UNL     1     -54.298 -41.964 -64.220  0.00  0.00    +0.000 OA
ATOM     13  C   UNL     1     -56.660 -41.550 -64.031  0.00  0.00    +0.000 A 
ATOM     14  H   UNL     1     -57.699 -38.810 -62.582  0.00  0.00    +0.000 HD
ENDROOT
BRANCH   1  15
ATOM     15  S   UNL     1     -59.218 -40.884 -62.983  0.00  0.00    +0.000 S 
ATOM     16  O   UNL     1     -59.622 -39.552 -62.413  0.00  0.00    +0.000 OA
BRANCH  15  17
ATOM     17  C   UNL     1     -59.265 -42.123 -61.644  0.00  0.00    +0.000 C 
BRANCH  17  21
ATOM     18  C   UNL     1     -55.907 -40.956 -57.880  0.00  0.00    +0.000 C 
ATOM     19  C   UNL     1     -56.743 -41.451 -58.997  0.00  0.00    +0.000 A 
ATOM     20  C   UNL     1     -57.971 -41.113 -59.518  0.00  0.00    +0.000 A 
ATOM     21  C   UNL     1     -58.157 -41.990 -60.626  0.00  0.00    +0.000 A 
ATOM     22  N   UNL     1     -57.102 -42.815 -60.735  0.00  0.00    +0.000 NA
ATOM     23  O   UNL     1     -56.225 -42.473 -59.724  0.00  0.00    +0.000 OA
ENDBRANCH  17  21
ENDBRANCH  15  17
ENDBRANCH   1  15
BRANCH  13  24
ATOM     24  C   UNL     1     -57.055 -42.813 -64.763  0.00  0.00    +0.000 C 
ATOM     25  O   UNL     1     -57.329 -43.834 -64.133  0.00  0.00    +0.000 OA
BRANCH  24  26
ATOM     26  C   UNL     1     -57.053 -42.852 -66.292  0.00  0.00    +0.000 C 
ATOM     27  C   UNL     1     -57.871 -44.024 -66.829  0.00  0.00    +0.000 C 
ATOM     28  C   UNL     1     -57.547 -41.536 -66.899  0.00  0.00    +0.000 C 
ENDBRANCH  24  26
ENDBRANCH  13  24
TORSDOF 5
