REMARK VINA RESULT:    -6.076     13.961     15.070
REMARK INTER + INTRA:          -8.178
REMARK INTER:                  -7.642
REMARK INTRA:                  -0.536
REMARK UNBOUND:                -0.681
REMARK  Name = 
REMARK  6 active torsions:
REMARK  status: ('A' for Active; 'I' for Inactive)
REMARK    1  A    between atoms: C_1  and  C_2
REMARK    2  A    between atoms: C_2  and  C_4
REMARK    3  A    between atoms: C_5  and  S_6
REMARK    4  A    between atoms: S_6  and  C_8
REMARK    5  A    between atoms: C_8  and  C_9
REMARK    6  A    between atoms: C_11  and  C_12
REMARK                            x       y       z     vdW  Elec       q    Type
REMARK                         _______ _______ _______ _____ _____    ______ ____
ROOT
ATOM      1  C   UNL     1     -55.281 -42.765 -76.920  0.00  0.00    +0.000 A 
ATOM      2  C   UNL     1     -54.544 -42.034 -77.785  0.00  0.00    +0.000 A 
ATOM      3  N   UNL     1     -54.973 -41.694 -79.052  0.00  0.00    +0.000 N 
ATOM      4  C   UNL     1     -56.162 -42.190 -79.612  0.00  0.00    +0.000 A 
ATOM      5  C   UNL     1     -56.552 -41.830 -80.915  0.00  0.00    +0.000 A 
ATOM      6 BR   UNL     1     -55.455 -40.707 -81.989  0.00  0.00    +0.000 Br
ATOM      7  C   UNL     1     -57.755 -42.277 -81.456  0.00  0.00    +0.000 A 
ATOM      8  C   UNL     1     -58.587 -43.092 -80.697  0.00  0.00    +0.000 A 
ATOM      9  C   UNL     1     -58.235 -43.449 -79.390  0.00  0.00    +0.000 A 
ATOM     10 CL   UNL     1     -59.367 -44.476 -78.578  0.00  0.00    +0.000 Cl
ATOM     11  C   UNL     1     -57.029 -42.978 -78.833  0.00  0.00    +0.000 A 
ATOM     12  C   UNL     1     -56.589 -43.294 -77.445  0.00  0.00    +0.000 A 
ATOM     13  O   UNL     1     -57.275 -44.026 -76.739  0.00  0.00    +0.000 OA
ATOM     14  H   UNL     1     -54.237 -41.463 -79.720  0.00  0.00    +0.000 HD
ENDROOT
BRANCH   1  16
ATOM     15  C   UNL     1     -53.925 -44.276 -75.290  0.00  0.00    +0.000 C 
ATOM     16  C   UNL     1     -54.862 -43.107 -75.514  0.00  0.00    +0.000 C 
ATOM     17  O   UNL     1     -55.270 -42.471 -74.542  0.00  0.00    +0.000 OA
ENDBRANCH   1  16
BRANCH   2  18
ATOM     18  S   UNL     1     -52.815 -41.578 -77.411  0.00  0.00    +0.000 S 
ATOM     19  O   UNL     1     -52.076 -41.962 -78.665  0.00  0.00    +0.000 OA
BRANCH  18  20
ATOM     20  C   UNL     1     -52.968 -39.756 -77.459  0.00  0.00    +0.000 C 
BRANCH  20  21
ATOM     21  C   UNL     1     -51.886 -39.102 -76.666  0.00  0.00    +0.000 A 
ATOM     22  C   UNL     1     -50.760 -39.690 -76.029  0.00  0.00    +0.000 A 
ATOM     23  C   UNL     1     -50.081 -38.630 -75.480  0.00  0.00    +0.000 A 
ATOM     24  C   UNL     1     -48.851 -38.491 -74.676  0.00  0.00    +0.000 C 
ATOM     25  O   UNL     1     -50.740 -37.478 -75.778  0.00  0.00    +0.000 OA
ATOM     26  N   UNL     1     -51.866 -37.768 -76.528  0.00  0.00    +0.000 NA
ENDBRANCH  20  21
ENDBRANCH  18  20
ENDBRANCH   2  18
TORSDOF 4
