REMARK VINA RESULT:    -5.468     25.704     27.604
REMARK INTER + INTRA:          -7.482
REMARK INTER:                  -6.493
REMARK INTRA:                  -0.989
REMARK UNBOUND:                -0.736
REMARK  Name = 
REMARK  6 active torsions:
REMARK  status: ('A' for Active; 'I' for Inactive)
REMARK    1  A    between atoms: C_1  and  C_2
REMARK    2  A    between atoms: C_2  and  C_4
REMARK    3  A    between atoms: C_5  and  S_6
REMARK    4  A    between atoms: S_6  and  C_8
REMARK    5  A    between atoms: C_8  and  C_9
REMARK    6  A    between atoms: C_11  and  C_12
REMARK                            x       y       z     vdW  Elec       q    Type
REMARK                         _______ _______ _______ _____ _____    ______ ____
ROOT
ATOM      1  C   UNL     1     -66.762 -51.498 -53.061  0.00  0.00    +0.000 A 
ATOM      2  C   UNL     1     -66.044 -50.385 -53.327  0.00  0.00    +0.000 A 
ATOM      3  N   UNL     1     -66.438 -49.435 -54.255  0.00  0.00    +0.000 N 
ATOM      4  C   UNL     1     -67.460 -49.693 -55.187  0.00  0.00    +0.000 A 
ATOM      5  C   UNL     1     -67.691 -48.824 -56.267  0.00  0.00    +0.000 A 
ATOM      6 BR   UNL     1     -66.588 -47.305 -56.551  0.00  0.00    +0.000 Br
ATOM      7  C   UNL     1     -68.725 -49.066 -57.168  0.00  0.00    +0.000 A 
ATOM      8  C   UNL     1     -69.545 -50.180 -56.993  0.00  0.00    +0.000 A 
ATOM      9  C   UNL     1     -69.350 -51.041 -55.906  0.00  0.00    +0.000 A 
ATOM     10 CL   UNL     1     -70.385 -52.422 -55.836  0.00  0.00    +0.000 Cl
ATOM     11  C   UNL     1     -68.323 -50.782 -54.984  0.00  0.00    +0.000 A 
ATOM     12  C   UNL     1     -68.090 -51.595 -53.759  0.00  0.00    +0.000 A 
ATOM     13  O   UNL     1     -68.976 -52.300 -53.293  0.00  0.00    +0.000 OA
ATOM     14  H   UNL     1     -65.668 -48.875 -54.628  0.00  0.00    +0.000 HD
ENDROOT
BRANCH   1  16
ATOM     15  C   UNL     1     -65.716 -53.861 -52.710  0.00  0.00    +0.000 C 
ATOM     16  C   UNL     1     -66.341 -52.603 -52.134  0.00  0.00    +0.000 C 
ATOM     17  O   UNL     1     -66.497 -52.504 -50.919  0.00  0.00    +0.000 OA
ENDBRANCH   1  16
BRANCH   2  18
ATOM     18  S   UNL     1     -64.401 -50.096 -52.589  0.00  0.00    +0.000 S 
ATOM     19  O   UNL     1     -63.592 -49.572 -53.744  0.00  0.00    +0.000 OA
BRANCH  18  20
ATOM     20  C   UNL     1     -64.840 -48.639 -51.562  0.00  0.00    +0.000 C 
BRANCH  20  21
ATOM     21  C   UNL     1     -64.326 -47.334 -52.080  0.00  0.00    +0.000 A 
ATOM     22  C   UNL     1     -63.130 -46.625 -51.791  0.00  0.00    +0.000 A 
ATOM     23  C   UNL     1     -63.149 -45.548 -52.644  0.00  0.00    +0.000 A 
ATOM     24  C   UNL     1     -62.241 -44.414 -52.906  0.00  0.00    +0.000 C 
ATOM     25  O   UNL     1     -64.275 -45.601 -53.400  0.00  0.00    +0.000 OA
ATOM     26  N   UNL     1     -65.012 -46.717 -53.055  0.00  0.00    +0.000 NA
ENDBRANCH  20  21
ENDBRANCH  18  20
ENDBRANCH   2  18
TORSDOF 4
