=
 OpenBabel09172513113D

 28 31  0  0  1  0  0  0  0  0999 V2000
  -55.6880  -42.7900  -76.7170 C   0  0  2  0  0  3  0  0  0  0  0  0
  -54.3600  -43.1380  -76.4030 N   0  0  0  0  0  0  0  0  0  0  0  0
  -53.3600  -42.1350  -76.2750 C   0  0  0  0  0  0  0  0  0  0  0  0
  -52.1430  -42.3450  -75.6000 C   0  0  0  0  0  0  0  0  0  0  0  0
  -51.8190  -43.9520  -74.6440 Br  0  0  0  0  0  0  0  0  0  0  0  0
  -51.1400  -41.3670  -75.5910 C   0  0  0  0  0  3  0  0  0  0  0  0
  -51.3580  -40.1460  -76.2410 C   0  0  0  0  0  3  0  0  0  0  0  0
  -52.5570  -39.9140  -76.9150 C   0  0  0  0  0  0  0  0  0  0  0  0
  -52.7560  -38.3510  -77.6220 Cl  0  0  0  0  0  0  0  0  0  0  0  0
  -53.5390  -40.9150  -76.9460 C   0  0  0  0  0  0  0  0  0  0  0  0
  -54.7990  -40.7930  -77.7040 C   0  0  0  0  0  0  0  0  0  0  0  0
  -54.8730  -40.1320  -78.7320 O   0  0  0  0  0  0  0  0  0  0  0  0
  -55.9870  -41.5730  -77.2220 C   0  0  2  0  0  3  0  0  0  0  0  0
  -54.3090  -43.8680  -75.6800 H   0  0  0  0  0  0  0  0  0  0  0  0
  -56.8970  -43.9150  -75.9720 S   0  0  2  0  0  0  0  0  0  0  0  0
  -57.6720  -44.4540  -77.1440 O   0  0  0  0  0  0  0  0  0  0  0  0
  -58.0570  -42.9660  -74.9450 C   0  0  0  0  0  2  0  0  0  0  0  0
  -55.8260  -41.1030  -70.7290 C   0  0  0  0  0  1  0  0  0  0  0  0
  -56.6470  -41.5490  -71.8700 C   0  0  0  0  0  0  0  0  0  0  0  0
  -56.3870  -42.2030  -73.0510 C   0  0  0  0  0  3  0  0  0  0  0  0
  -57.6580  -42.3960  -73.6370 C   0  0  0  0  0  0  0  0  0  0  0  0
  -58.6150  -41.8260  -72.8850 N   0  0  0  0  0  0  0  0  0  0  0  0
  -57.9780  -41.3000  -71.7810 O   0  0  0  0  0  0  0  0  0  0  0  0
  -57.2580  -40.7940  -77.2300 C   0  0  0  0  0  0  0  0  0  0  0  0
  -57.4720  -39.9490  -76.3780 O   0  0  0  0  0  0  0  0  0  0  0  0
  -58.2310  -41.0300  -78.3140 C   0  0  0  0  0  3  0  0  0  0  0  0
  -59.5250  -40.2590  -78.3300 C   0  0  0  0  0  2  0  0  0  0  0  0
  -59.5420  -41.7310  -78.0500 C   0  0  0  0  0  2  0  0  0  0  0  0
  1  2  1  0  0  0  0
  1 15  1  1  0  0  0
  2  3  1  0  0  0  0
  2 14  1  0  0  0  0
  3  4  1  0  0  0  0
  4  6  2  0  0  0  0
  4  5  1  0  0  0  0
  7  6  1  0  0  0  0
  8  7  2  0  0  0  0
  9  8  1  0  0  0  0
 10  8  1  0  0  0  0
 10  3  2  0  0  0  0
 11 13  1  0  0  0  0
 11 10  1  0  0  0  0
 12 11  2  0  0  0  0
 13 24  1  1  0  0  0
 13  1  1  0  0  0  0
 15 16  2  6  0  0  0
 15 17  1  0  0  0  0
 17 21  1  0  0  0  0
 19 23  1  0  0  0  0
 19 18  1  0  0  0  0
 20 19  2  0  0  0  0
 21 20  1  0  0  0  0
 21 22  2  0  0  0  0
 22 23  1  0  0  0  0
 24 25  2  0  0  0  0
 26 28  1  0  0  0  0
 26 24  1  0  0  0  0
 27 26  1  0  0  0  0
 27 28  1  0  0  0  0
M  END
>  <MODEL>
1

>  <REMARK>
 VINA RESULT:    -7.454      0.000      0.000
 INTER + INTRA:         -10.550
 INTER:                  -9.633
 INTRA:                  -0.917
 UNBOUND:                -0.917
  Name = 
  6 active torsions:
  status: ('A' for Active; 'I' for Inactive)
    1  A    between atoms: C_1  and  C_2
    2  A    between atoms: C_4  and  C_5
    3  A    between atoms: C_5  and  S_6
    4  A    between atoms: S_6  and  C_8
    5  A    between atoms: C_20  and  C_21
    6  A    between atoms: C_21  and  C_23
                            x       y       z     vdW  Elec       q    Type
                         _______ _______ _______ _____ _____    ______ ____

>  <TORSDO>
F 5

$$$$
