REMARK VINA RESULT:    -5.963      4.045      5.356
REMARK INTER + INTRA:          -8.579
REMARK INTER:                  -7.559
REMARK INTRA:                  -1.021
REMARK UNBOUND:                -0.873
REMARK  Name = 
REMARK  6 active torsions:
REMARK  status: ('A' for Active; 'I' for Inactive)
REMARK    1  A    between atoms: C_1  and  C_2
REMARK    2  A    between atoms: C_4  and  C_5
REMARK    3  A    between atoms: C_5  and  S_6
REMARK    4  A    between atoms: S_6  and  C_8
REMARK    5  A    between atoms: C_20  and  C_21
REMARK    6  A    between atoms: C_21  and  C_23
REMARK                            x       y       z     vdW  Elec       q    Type
REMARK                         _______ _______ _______ _____ _____    ______ ____
ROOT
ATOM      1  C   UNL     1     -57.184 -41.747 -79.772  0.00  0.00    +0.000 A 
ATOM      2  N   UNL     1     -56.396 -41.603 -80.931  0.00  0.00    +0.000 N 
ATOM      3  C   UNL     1     -54.996 -41.850 -80.890  0.00  0.00    +0.000 A 
ATOM      4  C   UNL     1     -54.228 -42.108 -82.040  0.00  0.00    +0.000 A 
ATOM      5 BR   UNL     1     -55.048 -42.326 -83.737  0.00  0.00    +0.000 Br
ATOM      6  C   UNL     1     -52.834 -42.236 -81.967  0.00  0.00    +0.000 A 
ATOM      7  C   UNL     1     -52.193 -42.134 -80.727  0.00  0.00    +0.000 A 
ATOM      8  C   UNL     1     -52.934 -41.880 -79.573  0.00  0.00    +0.000 A 
ATOM      9 CL   UNL     1     -52.059 -41.844 -78.084  0.00  0.00    +0.000 Cl
ATOM     10  C   UNL     1     -54.325 -41.718 -79.664  0.00  0.00    +0.000 A 
ATOM     11  C   UNL     1     -55.179 -41.364 -78.514  0.00  0.00    +0.000 A 
ATOM     12  O   UNL     1     -54.760 -40.685 -77.585  0.00  0.00    +0.000 OA
ATOM     13  C   UNL     1     -56.616 -41.792 -78.547  0.00  0.00    +0.000 A 
ATOM     14  H   UNL     1     -56.860 -41.986 -81.767  0.00  0.00    +0.000 HD
ENDROOT
BRANCH   1  15
ATOM     15  S   UNL     1     -58.871 -42.295 -80.140  0.00  0.00    +0.000 S 
ATOM     16  O   UNL     1     -58.685 -43.590 -80.884  0.00  0.00    +0.000 OA
BRANCH  15  17
ATOM     17  C   UNL     1     -59.655 -41.120 -81.283  0.00  0.00    +0.000 C 
BRANCH  17  21
ATOM     18  C   UNL     1     -61.927 -37.274 -78.779  0.00  0.00    +0.000 C 
ATOM     19  C   UNL     1     -61.281 -38.255 -79.671  0.00  0.00    +0.000 A 
ATOM     20  C   UNL     1     -60.706 -39.491 -79.494  0.00  0.00    +0.000 A 
ATOM     21  C   UNL     1     -60.370 -39.916 -80.799  0.00  0.00    +0.000 A 
ATOM     22  N   UNL     1     -60.662 -38.959 -81.697  0.00  0.00    +0.000 NA
ATOM     23  O   UNL     1     -61.233 -37.924 -80.986  0.00  0.00    +0.000 OA
ENDBRANCH  17  21
ENDBRANCH  15  17
ENDBRANCH   1  15
BRANCH  13  24
ATOM     24  C   UNL     1     -57.103 -42.354 -77.255  0.00  0.00    +0.000 C 
ATOM     25  O   UNL     1     -56.692 -43.428 -76.851  0.00  0.00    +0.000 OA
BRANCH  24  26
ATOM     26  C   UNL     1     -58.055 -41.564 -76.451  0.00  0.00    +0.000 C 
ATOM     27  C   UNL     1     -58.129 -40.071 -76.643  0.00  0.00    +0.000 C 
ATOM     28  C   UNL     1     -57.577 -40.628 -75.367  0.00  0.00    +0.000 C 
ENDBRANCH  24  26
ENDBRANCH  13  24
TORSDOF 5
