REMARK VINA RESULT:    -4.756     16.144     17.392
REMARK INTER + INTRA:          -6.833
REMARK INTER:                  -6.157
REMARK INTRA:                  -0.675
REMARK UNBOUND:                -0.965
REMARK  Name = 
REMARK  6 active torsions:
REMARK  status: ('A' for Active; 'I' for Inactive)
REMARK    1  A    between atoms: C_1  and  C_2
REMARK    2  A    between atoms: C_2  and  C_4
REMARK    3  A    between atoms: C_5  and  S_6
REMARK    4  A    between atoms: S_6  and  C_8
REMARK    5  A    between atoms: C_8  and  C_9
REMARK    6  A    between atoms: C_11  and  C_12
REMARK                            x       y       z     vdW  Elec       q    Type
REMARK                         _______ _______ _______ _____ _____    ______ ____
ROOT
ATOM      1  C   UNL     1     -44.855 -27.486 -64.713  0.00  0.00    +0.000 A 
ATOM      2  C   UNL     1     -45.292 -26.471 -65.495  0.00  0.00    +0.000 A 
ATOM      3  N   UNL     1     -45.168 -26.465 -66.869  0.00  0.00    +0.000 N 
ATOM      4  C   UNL     1     -44.457 -27.450 -67.574  0.00  0.00    +0.000 A 
ATOM      5  C   UNL     1     -44.354 -27.394 -68.979  0.00  0.00    +0.000 A 
ATOM      6 BR   UNL     1     -45.114 -25.953 -69.958  0.00  0.00    +0.000 Br
ATOM      7  C   UNL     1     -43.695 -28.394 -69.691  0.00  0.00    +0.000 A 
ATOM      8  C   UNL     1     -43.133 -29.466 -69.007  0.00  0.00    +0.000 A 
ATOM      9  C   UNL     1     -43.242 -29.557 -67.615  0.00  0.00    +0.000 A 
ATOM     10 CL   UNL     1     -42.482 -30.941 -66.909  0.00  0.00    +0.000 Cl
ATOM     11  C   UNL     1     -43.928 -28.558 -66.893  0.00  0.00    +0.000 A 
ATOM     12  C   UNL     1     -44.114 -28.595 -65.417  0.00  0.00    +0.000 A 
ATOM     13  O   UNL     1     -43.627 -29.511 -64.765  0.00  0.00    +0.000 OA
ATOM     14  H   UNL     1     -45.204 -25.546 -67.312  0.00  0.00    +0.000 HD
ENDROOT
BRANCH   1  16
ATOM     15  C   UNL     1     -46.282 -28.176 -62.649  0.00  0.00    +0.000 C 
ATOM     16  C   UNL     1     -45.025 -27.554 -63.219  0.00  0.00    +0.000 C 
ATOM     17  O   UNL     1     -44.184 -27.097 -62.449  0.00  0.00    +0.000 OA
ENDBRANCH   1  16
BRANCH   2  18
ATOM     18  S   UNL     1     -45.951 -24.928 -64.767  0.00  0.00    +0.000 S 
ATOM     19  O   UNL     1     -44.736 -24.043 -64.672  0.00  0.00    +0.000 OA
BRANCH  18  20
ATOM     20  C   UNL     1     -46.912 -24.312 -66.196  0.00  0.00    +0.000 C 
BRANCH  20  21
ATOM     21  C   UNL     1     -48.211 -23.705 -65.782  0.00  0.00    +0.000 A 
ATOM     22  C   UNL     1     -48.968 -23.918 -64.599  0.00  0.00    +0.000 A 
ATOM     23  C   UNL     1     -50.022 -23.044 -64.700  0.00  0.00    +0.000 A 
ATOM     24  C   UNL     1     -51.182 -22.717 -63.847  0.00  0.00    +0.000 C 
ATOM     25  O   UNL     1     -49.912 -22.347 -65.861  0.00  0.00    +0.000 OA
ATOM     26  N   UNL     1     -48.775 -22.752 -66.539  0.00  0.00    +0.000 NA
ENDBRANCH  20  21
ENDBRANCH  18  20
ENDBRANCH   2  18
TORSDOF 4
