=
 OpenBabel09172513113D

 28 30  0  0  0  0  0  0  0  0999 V2000
   -3.7200   -4.1420    0.4460 C   0  0  0  0  0  0  0  0  0  0  0  0
   -3.6320   -5.5030    0.7220 N   0  0  0  0  0  0  0  0  0  0  0  0
   -4.6990   -6.3820    0.4520 C   0  0  0  0  0  0  0  0  0  0  0  0
   -4.5110   -7.7710    0.3220 C   0  0  0  0  0  0  0  0  0  0  0  0
   -2.7710   -8.5260    0.3420 Br  0  0  0  0  0  0  0  0  0  0  0  0
   -5.5980   -8.6290    0.1320 C   0  0  0  0  0  3  0  0  0  0  0  0
   -6.8880   -8.1110    0.0640 C   0  0  0  0  0  3  0  0  0  0  0  0
   -7.0970   -6.7250    0.1840 C   0  0  0  0  0  0  0  0  0  0  0  0
   -8.7310   -6.1940    0.0120 Cl  0  0  0  0  0  0  0  0  0  0  0  0
   -6.0010   -5.8600    0.3830 C   0  0  0  0  0  0  0  0  0  0  0  0
   -6.1190   -4.3890    0.5540 C   0  0  0  0  0  0  0  0  0  0  0  0
   -7.1700   -3.8990    0.9560 O   0  0  0  0  0  0  0  0  0  0  0  0
   -4.9050   -3.5190    0.2410 C   0  0  0  0  0  0  0  0  0  0  0  0
   -2.6860   -5.8920    0.6060 H   0  0  0  0  0  0  0  0  0  0  0  0
   -2.0640   -3.4000    0.1900 S   0  0  2  0  0  0  0  0  0  0  0  0
   -1.1180   -4.5510    0.4010 O   0  0  0  0  0  0  0  0  0  0  0  0
   -1.8980   -2.2500    1.5970 C   0  0  0  0  0  2  0  0  0  0  0  0
    3.1240   -1.0020    1.7510 C   0  0  0  0  0  1  0  0  0  0  0  0
    1.6590   -1.1930    1.8280 C   0  0  0  0  0  0  0  0  0  0  0  0
    0.7530   -2.0340    1.2230 C   0  0  0  0  0  3  0  0  0  0  0  0
   -0.5080   -1.6910    1.7910 C   0  0  0  0  0  0  0  0  0  0  0  0
   -0.3530   -0.6850    2.6690 N   0  0  0  0  0  0  0  0  0  0  0  0
    0.9950   -0.3820    2.6910 O   0  0  0  0  0  0  0  0  0  0  0  0
   -5.1830   -2.1270   -0.2810 C   0  0  0  0  0  0  0  0  0  0  0  0
   -6.2080   -1.5340    0.0530 O   0  0  0  0  0  0  0  0  0  0  0  0
   -4.2280   -1.4710   -1.2790 C   0  0  0  0  0  3  0  0  0  0  0  0
   -4.0800   -2.3020   -2.5510 C   0  0  0  0  0  1  0  0  0  0  0  0
   -4.6550   -0.0420   -1.6250 C   0  0  0  0  0  1  0  0  0  0  0  0
  1  2  1  0  0  0  0
  3  2  1  0  0  0  0
  4  5  1  0  0  0  0
  4  3  2  0  0  0  0
  6  4  1  0  0  0  0
  7  6  2  0  0  0  0
  7  8  1  0  0  0  0
  8 10  2  0  0  0  0
  9  8  1  0  0  0  0
 10  3  1  0  0  0  0
 10 11  1  0  0  0  0
 11 12  2  0  0  0  0
 13  1  2  0  0  0  0
 13 11  1  0  0  0  0
 14  2  1  0  0  0  0
 15 16  2  1  0  0  0
 15  1  1  0  0  0  0
 15 17  1  0  0  0  0
 17 21  1  0  0  0  0
 18 19  1  0  0  0  0
 19 23  1  0  0  0  0
 20 21  1  0  0  0  0
 20 19  2  0  0  0  0
 21 22  2  0  0  0  0
 22 23  1  0  0  0  0
 24 25  2  0  0  0  0
 24 13  1  0  0  0  0
 26 24  1  0  0  0  0
 27 26  1  0  0  0  0
 28 26  1  0  0  0  0
M  END
>  <REMARK>
  Name = 
  8 active torsions:
  status: ('A' for Active; 'I' for Inactive)
    1  A    between atoms: C_1  and  C_2
    2  A    between atoms: C_4  and  C_5
    3  A    between atoms: C_5  and  S_6
    4  A    between atoms: S_6  and  C_8
    5  A    between atoms: C_20  and  C_21
    6  A    between atoms: C_21  and  C_23
    7  A    between atoms: C_23  and  C_24
    8  A    between atoms: C_23  and  C_25
                            x       y       z     vdW  Elec       q    Type
                         _______ _______ _______ _____ _____    ______ ____

>  <TORSDO>
F 5

$$$$
