REMARK VINA RESULT:    -5.890      3.375      6.245
REMARK INTER + INTRA:          -8.522
REMARK INTER:                  -8.183
REMARK INTRA:                  -0.339
REMARK UNBOUND:                -0.910
REMARK  Name = 
REMARK  6 active torsions:
REMARK  status: ('A' for Active; 'I' for Inactive)
REMARK    1  A    between atoms: C_1  and  C_2
REMARK    2  A    between atoms: C_4  and  C_5
REMARK    3  A    between atoms: C_5  and  S_6
REMARK    4  A    between atoms: S_6  and  C_8
REMARK    5  A    between atoms: C_20  and  C_21
REMARK    6  A    between atoms: C_21  and  C_23
REMARK                            x       y       z     vdW  Elec       q    Type
REMARK                         _______ _______ _______ _____ _____    ______ ____
ROOT
ATOM      1  C   UNL     1     -56.155 -41.802 -64.362  0.00  0.00    +0.000 A 
ATOM      2  N   UNL     1     -56.384 -42.521 -65.551  0.00  0.00    +0.000 N 
ATOM      3  C   UNL     1     -57.573 -42.316 -66.303  0.00  0.00    +0.000 A 
ATOM      4  C   UNL     1     -57.699 -42.683 -67.656  0.00  0.00    +0.000 A 
ATOM      5 BR   UNL     1     -56.209 -43.325 -68.639  0.00  0.00    +0.000 Br
ATOM      6  C   UNL     1     -58.923 -42.564 -68.329  0.00  0.00    +0.000 A 
ATOM      7  C   UNL     1     -60.036 -42.046 -67.656  0.00  0.00    +0.000 A 
ATOM      8  C   UNL     1     -59.935 -41.674 -66.316  0.00  0.00    +0.000 A 
ATOM      9 CL   UNL     1     -61.344 -40.980 -65.598  0.00  0.00    +0.000 Cl
ATOM     10  C   UNL     1     -58.714 -41.831 -65.643  0.00  0.00    +0.000 A 
ATOM     11  C   UNL     1     -58.534 -41.546 -64.207  0.00  0.00    +0.000 A 
ATOM     12  O   UNL     1     -59.450 -41.678 -63.404  0.00  0.00    +0.000 OA
ATOM     13  C   UNL     1     -57.164 -41.161 -63.732  0.00  0.00    +0.000 A 
ATOM     14  H   UNL     1     -55.536 -42.597 -66.130  0.00  0.00    +0.000 HD
ENDROOT
BRANCH   1  15
ATOM     15  S   UNL     1     -54.396 -41.476 -64.074  0.00  0.00    +0.000 S 
ATOM     16  O   UNL     1     -53.818 -41.320 -65.454  0.00  0.00    +0.000 OA
BRANCH  15  17
ATOM     17  C   UNL     1     -53.624 -42.938 -63.322  0.00  0.00    +0.000 C 
BRANCH  17  21
ATOM     18  C   UNL     1     -49.208 -45.249 -64.498  0.00  0.00    +0.000 C 
ATOM     19  C   UNL     1     -50.387 -44.405 -64.230  0.00  0.00    +0.000 A 
ATOM     20  C   UNL     1     -51.671 -44.645 -63.800  0.00  0.00    +0.000 A 
ATOM     21  C   UNL     1     -52.248 -43.363 -63.669  0.00  0.00    +0.000 A 
ATOM     22  N   UNL     1     -51.382 -42.414 -64.067  0.00  0.00    +0.000 NA
ATOM     23  O   UNL     1     -50.220 -43.071 -64.414  0.00  0.00    +0.000 OA
ENDBRANCH  17  21
ENDBRANCH  15  17
ENDBRANCH   1  15
BRANCH  13  24
ATOM     24  C   UNL     1     -57.161 -40.020 -62.773  0.00  0.00    +0.000 C 
ATOM     25  O   UNL     1     -57.027 -38.876 -63.172  0.00  0.00    +0.000 OA
BRANCH  24  26
ATOM     26  C   UNL     1     -57.370 -40.294 -61.339  0.00  0.00    +0.000 C 
ATOM     27  C   UNL     1     -56.556 -39.548 -60.315  0.00  0.00    +0.000 C 
ATOM     28  C   UNL     1     -56.326 -41.014 -60.519  0.00  0.00    +0.000 C 
ENDBRANCH  24  26
ENDBRANCH  13  24
TORSDOF 5
