REMARK VINA RESULT:    -5.984      3.394      5.818
REMARK INTER + INTRA:          -8.354
REMARK INTER:                  -7.501
REMARK INTRA:                  -0.853
REMARK UNBOUND:                -0.971
REMARK  Name = 
REMARK  6 active torsions:
REMARK  status: ('A' for Active; 'I' for Inactive)
REMARK    1  A    between atoms: C_1  and  C_2
REMARK    2  A    between atoms: C_2  and  C_4
REMARK    3  A    between atoms: C_5  and  S_6
REMARK    4  A    between atoms: S_6  and  C_8
REMARK    5  A    between atoms: C_8  and  C_9
REMARK    6  A    between atoms: C_11  and  C_12
REMARK                            x       y       z     vdW  Elec       q    Type
REMARK                         _______ _______ _______ _____ _____    ______ ____
ROOT
ATOM      1  C   UNL     1     -57.360 -43.901 -78.151  0.00  0.00    +0.000 A 
ATOM      2  C   UNL     1     -56.371 -43.171 -77.583  0.00  0.00    +0.000 A 
ATOM      3  N   UNL     1     -55.315 -43.733 -76.886  0.00  0.00    +0.000 N 
ATOM      4  C   UNL     1     -55.287 -45.093 -76.526  0.00  0.00    +0.000 A 
ATOM      5  C   UNL     1     -54.251 -45.608 -75.725  0.00  0.00    +0.000 A 
ATOM      6 BR   UNL     1     -52.888 -44.473 -75.043  0.00  0.00    +0.000 Br
ATOM      7  C   UNL     1     -54.197 -46.962 -75.400  0.00  0.00    +0.000 A 
ATOM      8  C   UNL     1     -55.179 -47.823 -75.879  0.00  0.00    +0.000 A 
ATOM      9  C   UNL     1     -56.205 -47.341 -76.700  0.00  0.00    +0.000 A 
ATOM     10 CL   UNL     1     -57.368 -48.525 -77.191  0.00  0.00    +0.000 Cl
ATOM     11  C   UNL     1     -56.248 -45.976 -77.047  0.00  0.00    +0.000 A 
ATOM     12  C   UNL     1     -57.283 -45.392 -77.945  0.00  0.00    +0.000 A 
ATOM     13  O   UNL     1     -58.088 -46.131 -78.497  0.00  0.00    +0.000 OA
ATOM     14  H   UNL     1     -54.860 -43.106 -76.219  0.00  0.00    +0.000 HD
ENDROOT
BRANCH   1  16
ATOM     15  C   UNL     1     -59.824 -43.042 -78.222  0.00  0.00    +0.000 C 
ATOM     16  C   UNL     1     -58.513 -43.318 -78.929  0.00  0.00    +0.000 C 
ATOM     17  O   UNL     1     -58.421 -43.064 -80.131  0.00  0.00    +0.000 OA
ENDBRANCH   1  16
BRANCH   2  18
ATOM     18  S   UNL     1     -56.430 -41.340 -77.534  0.00  0.00    +0.000 S 
ATOM     19  O   UNL     1     -56.039 -41.023 -76.114  0.00  0.00    +0.000 OA
BRANCH  18  20
ATOM     20  C   UNL     1     -54.962 -40.968 -78.556  0.00  0.00    +0.000 C 
BRANCH  20  21
ATOM     21  C   UNL     1     -53.811 -40.461 -77.743  0.00  0.00    +0.000 A 
ATOM     22  C   UNL     1     -52.766 -41.181 -77.107  0.00  0.00    +0.000 A 
ATOM     23  C   UNL     1     -51.923 -40.213 -76.615  0.00  0.00    +0.000 A 
ATOM     24  C   UNL     1     -50.640 -40.221 -75.884  0.00  0.00    +0.000 C 
ATOM     25  O   UNL     1     -52.435 -38.988 -76.920  0.00  0.00    +0.000 OA
ATOM     26  N   UNL     1     -53.612 -39.140 -77.632  0.00  0.00    +0.000 NA
ENDBRANCH  20  21
ENDBRANCH  18  20
ENDBRANCH   2  18
TORSDOF 4
