REMARK  Name = 
REMARK  6 active torsions:
REMARK  status: ('A' for Active; 'I' for Inactive)
REMARK    1  A    between atoms: C_1  and  C_2
REMARK    2  A    between atoms: C_2  and  C_4
REMARK    3  A    between atoms: C_5  and  S_6
REMARK    4  A    between atoms: S_6  and  C_8
REMARK    5  A    between atoms: C_8  and  C_9
REMARK    6  A    between atoms: C_11  and  C_12
REMARK                            x       y       z     vdW  Elec       q    Type
REMARK                         _______ _______ _______ _____ _____    ______ ____
ROOT
ATOM      1  C   UNL     1       2.946  -0.950   0.949  0.00  0.00    +0.000 A 
ATOM      2  C   UNL     1       2.653  -2.265   0.802  0.00  0.00    +0.000 A 
ATOM      3  N   UNL     1       3.273  -3.262   1.527  0.00  0.00    +0.000 N 
ATOM      4  C   UNL     1       4.325  -3.018   2.423  0.00  0.00    +0.000 A 
ATOM      5  C   UNL     1       4.877  -4.063   3.188  0.00  0.00    +0.000 A 
ATOM      6 BR   UNL     1       4.250  -5.847   3.003  0.00  0.00    +0.000 Br
ATOM      7  C   UNL     1       5.887  -3.818   4.116  0.00  0.00    +0.000 A 
ATOM      8  C   UNL     1       6.364  -2.521   4.287  0.00  0.00    +0.000 A 
ATOM      9  C   UNL     1       5.813  -1.461   3.554  0.00  0.00    +0.000 A 
ATOM     10 CL   UNL     1       6.514   0.088   3.871  0.00  0.00    +0.000 Cl
ATOM     11  C   UNL     1       4.768  -1.702   2.643  0.00  0.00    +0.000 A 
ATOM     12  C   UNL     1       4.095  -0.626   1.868  0.00  0.00    +0.000 A 
ATOM     13  O   UNL     1       4.495   0.529   1.942  0.00  0.00    +0.000 OA
ATOM     14  H   UNL     1       3.237  -4.198   1.123  0.00  0.00    +0.000 HD
ENDROOT
BRANCH   1  16
ATOM     15  C   UNL     1       2.201   1.532   0.906  0.00  0.00    +0.000 C 
ATOM     16  C   UNL     1       2.237   0.173   0.244  0.00  0.00    +0.000 C 
ATOM     17  O   UNL     1       1.660   0.005  -0.833  0.00  0.00    +0.000 OA
ENDBRANCH   1  16
BRANCH   2  18
ATOM     18  S   UNL     1       1.493  -2.835  -0.485  0.00  0.00    +0.000 S 
ATOM     19  O   UNL     1       2.332  -3.756  -1.329  0.00  0.00    +0.000 OA
BRANCH  18  20
ATOM     20  C   UNL     1       0.433  -3.917   0.540  0.00  0.00    +0.000 C 
BRANCH  20  21
ATOM     21  C   UNL     1      -0.654  -4.549  -0.261  0.00  0.00    +0.000 A 
ATOM     22  C   UNL     1      -0.550  -5.434  -1.364  0.00  0.00    +0.000 A 
ATOM     23  C   UNL     1      -1.848  -5.778  -1.655  0.00  0.00    +0.000 A 
ATOM     24  C   UNL     1      -2.485  -6.659  -2.651  0.00  0.00    +0.000 C 
ATOM     25  O   UNL     1      -2.680  -5.139  -0.790  0.00  0.00    +0.000 OA
ATOM     26  N   UNL     1      -1.936  -4.372   0.089  0.00  0.00    +0.000 NA
ENDBRANCH  20  21
ENDBRANCH  18  20
ENDBRANCH   2  18
TORSDOF 4
