MODEL 1
REMARK VINA RESULT:    -6.998      0.000      0.000
REMARK INTER + INTRA:         -10.097
REMARK INTER:                  -9.043
REMARK INTRA:                  -1.054
REMARK UNBOUND:                -1.054
REMARK  Name = 
REMARK  8 active torsions:
REMARK  status: ('A' for Active; 'I' for Inactive)
REMARK    1  A    between atoms: C_1  and  C_2
REMARK    2  A    between atoms: C_4  and  C_5
REMARK    3  A    between atoms: C_5  and  S_6
REMARK    4  A    between atoms: S_6  and  C_8
REMARK    5  A    between atoms: C_20  and  C_21
REMARK    6  A    between atoms: C_21  and  C_23
REMARK    7  A    between atoms: C_23  and  C_24
REMARK    8  A    between atoms: C_23  and  C_25
REMARK                            x       y       z     vdW  Elec       q    Type
REMARK                         _______ _______ _______ _____ _____    ______ ____
ROOT
ATOM      1  C   UNL     1     -55.654 -42.299 -77.340  0.00  0.00    +0.000 A 
ATOM      2  N   UNL     1     -54.938 -41.109 -77.252  0.00  0.00    +0.000 N 
ATOM      3  C   UNL     1     -53.593 -41.085 -76.835  0.00  0.00    +0.000 A 
ATOM      4  C   UNL     1     -52.736 -40.006 -77.126  0.00  0.00    +0.000 A 
ATOM      5 BR   UNL     1     -53.304 -38.585 -78.246  0.00  0.00    +0.000 Br
ATOM      6  C   UNL     1     -51.429 -39.973 -76.632  0.00  0.00    +0.000 A 
ATOM      7  C   UNL     1     -50.957 -41.019 -75.845  0.00  0.00    +0.000 A 
ATOM      8  C   UNL     1     -51.794 -42.110 -75.548  0.00  0.00    +0.000 A 
ATOM      9 CL   UNL     1     -51.075 -43.379 -74.624  0.00  0.00    +0.000 Cl
ATOM     10  C   UNL     1     -53.115 -42.140 -76.040  0.00  0.00    +0.000 A 
ATOM     11  C   UNL     1     -54.086 -43.229 -75.757  0.00  0.00    +0.000 A 
ATOM     12  O   UNL     1     -53.951 -43.928 -74.758  0.00  0.00    +0.000 OA
ATOM     13  C   UNL     1     -55.252 -43.434 -76.720  0.00  0.00    +0.000 A 
ATOM     14  H   UNL     1     -55.203 -40.409 -77.959  0.00  0.00    +0.000 HD
ENDROOT
BRANCH   1  15
ATOM     15  S   UNL     1     -57.029 -42.168 -78.544  0.00  0.00    +0.000 S 
ATOM     16  O   UNL     1     -56.413 -41.457 -79.719  0.00  0.00    +0.000 OA
BRANCH  15  17
ATOM     17  C   UNL     1     -58.195 -41.027 -77.726  0.00  0.00    +0.000 C 
BRANCH  17  21
ATOM     18  C   UNL     1     -57.967 -40.880 -72.556  0.00  0.00    +0.000 C 
ATOM     19  C   UNL     1     -58.157 -41.086 -74.008  0.00  0.00    +0.000 A 
ATOM     20  C   UNL     1     -57.800 -40.396 -75.145  0.00  0.00    +0.000 A 
ATOM     21  C   UNL     1     -58.284 -41.188 -76.226  0.00  0.00    +0.000 A 
ATOM     22  N   UNL     1     -58.911 -42.277 -75.748  0.00  0.00    +0.000 NA
ATOM     23  O   UNL     1     -58.826 -42.210 -74.371  0.00  0.00    +0.000 OA
ENDBRANCH  17  21
ENDBRANCH  15  17
ENDBRANCH   1  15
BRANCH  13  24
ATOM     24  C   UNL     1     -55.763 -44.849 -76.877  0.00  0.00    +0.000 C 
ATOM     25  O   UNL     1     -56.947 -45.107 -76.662  0.00  0.00    +0.000 OA
BRANCH  24  26
ATOM     26  C   UNL     1     -54.802 -45.981 -77.238  0.00  0.00    +0.000 C 
ATOM     27  C   UNL     1     -54.752 -47.051 -76.150  0.00  0.00    +0.000 C 
ATOM     28  C   UNL     1     -55.146 -46.615 -78.589  0.00  0.00    +0.000 C 
ENDBRANCH  24  26
ENDBRANCH  13  24
TORSDOF 5
ENDMDL
MODEL 2
REMARK VINA RESULT:    -6.748      2.722      5.298
REMARK INTER + INTRA:          -9.774
REMARK INTER:                  -8.573
REMARK INTRA:                  -1.201
REMARK UNBOUND:                -1.054
REMARK  Name = 
REMARK  8 active torsions:
REMARK  status: ('A' for Active; 'I' for Inactive)
REMARK    1  A    between atoms: C_1  and  C_2
REMARK    2  A    between atoms: C_4  and  C_5
REMARK    3  A    between atoms: C_5  and  S_6
REMARK    4  A    between atoms: S_6  and  C_8
REMARK    5  A    between atoms: C_20  and  C_21
REMARK    6  A    between atoms: C_21  and  C_23
REMARK    7  A    between atoms: C_23  and  C_24
REMARK    8  A    between atoms: C_23  and  C_25
REMARK                            x       y       z     vdW  Elec       q    Type
REMARK                         _______ _______ _______ _____ _____    ______ ____
ROOT
ATOM      1  C   UNL     1     -55.935 -42.546 -76.669  0.00  0.00    +0.000 A 
ATOM      2  N   UNL     1     -54.625 -42.947 -76.423  0.00  0.00    +0.000 N 
ATOM      3  C   UNL     1     -53.571 -42.017 -76.335  0.00  0.00    +0.000 A 
ATOM      4  C   UNL     1     -52.356 -42.320 -75.693  0.00  0.00    +0.000 A 
ATOM      5 BR   UNL     1     -52.127 -43.955 -74.760  0.00  0.00    +0.000 Br
ATOM      6  C   UNL     1     -51.298 -41.406 -75.688  0.00  0.00    +0.000 A 
ATOM      7  C   UNL     1     -51.441 -40.174 -76.320  0.00  0.00    +0.000 A 
ATOM      8  C   UNL     1     -52.650 -39.849 -76.961  0.00  0.00    +0.000 A 
ATOM      9 CL   UNL     1     -52.734 -38.266 -77.647  0.00  0.00    +0.000 Cl
ATOM     10  C   UNL     1     -53.715 -40.773 -76.972  0.00  0.00    +0.000 A 
ATOM     11  C   UNL     1     -55.017 -40.539 -77.648  0.00  0.00    +0.000 A 
ATOM     12  O   UNL     1     -55.093 -39.739 -78.576  0.00  0.00    +0.000 OA
ATOM     13  C   UNL     1     -56.236 -41.326 -77.176  0.00  0.00    +0.000 A 
ATOM     14  H   UNL     1     -54.549 -43.774 -75.815  0.00  0.00    +0.000 HD
ENDROOT
BRANCH   1  15
ATOM     15  S   UNL     1     -57.143 -43.764 -76.025  0.00  0.00    +0.000 S 
ATOM     16  O   UNL     1     -56.352 -44.558 -75.021  0.00  0.00    +0.000 OA
BRANCH  15  17
ATOM     17  C   UNL     1     -57.476 -44.828 -77.470  0.00  0.00    +0.000 C 
BRANCH  17  21
ATOM     18  C   UNL     1     -55.173 -49.464 -77.455  0.00  0.00    +0.000 C 
ATOM     19  C   UNL     1     -55.653 -48.067 -77.537  0.00  0.00    +0.000 A 
ATOM     20  C   UNL     1     -56.861 -47.439 -77.340  0.00  0.00    +0.000 A 
ATOM     21  C   UNL     1     -56.601 -46.056 -77.561  0.00  0.00    +0.000 A 
ATOM     22  N   UNL     1     -55.309 -45.883 -77.891  0.00  0.00    +0.000 NA
ATOM     23  O   UNL     1     -54.724 -47.135 -77.871  0.00  0.00    +0.000 OA
ENDBRANCH  17  21
ENDBRANCH  15  17
ENDBRANCH   1  15
BRANCH  13  24
ATOM     24  C   UNL     1     -57.578 -40.640 -77.298  0.00  0.00    +0.000 C 
ATOM     25  O   UNL     1     -57.850 -39.679 -76.579  0.00  0.00    +0.000 OA
BRANCH  24  26
ATOM     26  C   UNL     1     -58.633 -41.173 -78.268  0.00  0.00    +0.000 C 
ATOM     27  C   UNL     1     -59.712 -40.133 -78.559  0.00  0.00    +0.000 C 
ATOM     28  C   UNL     1     -58.009 -41.671 -79.575  0.00  0.00    +0.000 C 
ENDBRANCH  24  26
ENDBRANCH  13  24
TORSDOF 5
ENDMDL
MODEL 3
REMARK VINA RESULT:    -6.638      3.468      4.158
REMARK INTER + INTRA:          -9.632
REMARK INTER:                  -8.584
REMARK INTRA:                  -1.047
REMARK UNBOUND:                -1.054
REMARK  Name = 
REMARK  8 active torsions:
REMARK  status: ('A' for Active; 'I' for Inactive)
REMARK    1  A    between atoms: C_1  and  C_2
REMARK    2  A    between atoms: C_4  and  C_5
REMARK    3  A    between atoms: C_5  and  S_6
REMARK    4  A    between atoms: S_6  and  C_8
REMARK    5  A    between atoms: C_20  and  C_21
REMARK    6  A    between atoms: C_21  and  C_23
REMARK    7  A    between atoms: C_23  and  C_24
REMARK    8  A    between atoms: C_23  and  C_25
REMARK                            x       y       z     vdW  Elec       q    Type
REMARK                         _______ _______ _______ _____ _____    ______ ____
ROOT
ATOM      1  C   UNL     1     -55.509 -41.691 -79.013  0.00  0.00    +0.000 A 
ATOM      2  N   UNL     1     -55.572 -41.105 -80.274  0.00  0.00    +0.000 N 
ATOM      3  C   UNL     1     -54.607 -41.375 -81.264  0.00  0.00    +0.000 A 
ATOM      4  C   UNL     1     -54.853 -41.150 -82.631  0.00  0.00    +0.000 A 
ATOM      5 BR   UNL     1     -56.570 -40.618 -83.239  0.00  0.00    +0.000 Br
ATOM      6  C   UNL     1     -53.852 -41.354 -83.585  0.00  0.00    +0.000 A 
ATOM      7  C   UNL     1     -52.592 -41.789 -83.187  0.00  0.00    +0.000 A 
ATOM      8  C   UNL     1     -52.327 -42.027 -81.826  0.00  0.00    +0.000 A 
ATOM      9 CL   UNL     1     -50.752 -42.633 -81.461  0.00  0.00    +0.000 Cl
ATOM     10  C   UNL     1     -53.335 -41.815 -80.862  0.00  0.00    +0.000 A 
ATOM     11  C   UNL     1     -53.147 -42.006 -79.401  0.00  0.00    +0.000 A 
ATOM     12  O   UNL     1     -52.023 -41.940 -78.912  0.00  0.00    +0.000 OA
ATOM     13  C   UNL     1     -54.377 -42.260 -78.535  0.00  0.00    +0.000 A 
ATOM     14  H   UNL     1     -56.531 -40.941 -80.610  0.00  0.00    +0.000 HD
ENDROOT
BRANCH   1  15
ATOM     15  S   UNL     1     -57.163 -41.775 -78.228  0.00  0.00    +0.000 S 
ATOM     16  O   UNL     1     -58.088 -41.225 -79.279  0.00  0.00    +0.000 OA
BRANCH  15  17
ATOM     17  C   UNL     1     -57.044 -40.561 -76.871  0.00  0.00    +0.000 C 
BRANCH  17  21
ATOM     18  C   UNL     1     -58.948 -41.419 -72.134  0.00  0.00    +0.000 C 
ATOM     19  C   UNL     1     -58.557 -41.296 -73.555  0.00  0.00    +0.000 A 
ATOM     20  C   UNL     1     -57.637 -40.545 -74.251  0.00  0.00    +0.000 A 
ATOM     21  C   UNL     1     -57.774 -40.957 -75.608  0.00  0.00    +0.000 A 
ATOM     22  N   UNL     1     -58.739 -41.887 -75.707  0.00  0.00    +0.000 NA
ATOM     23  O   UNL     1     -59.220 -42.097 -74.429  0.00  0.00    +0.000 OA
ENDBRANCH  17  21
ENDBRANCH  15  17
ENDBRANCH   1  15
BRANCH  13  24
ATOM     24  C   UNL     1     -54.179 -43.126 -77.310  0.00  0.00    +0.000 C 
ATOM     25  O   UNL     1     -54.351 -44.342 -77.378  0.00  0.00    +0.000 OA
BRANCH  24  26
ATOM     26  C   UNL     1     -53.828 -42.491 -75.964  0.00  0.00    +0.000 C 
ATOM     27  C   UNL     1     -54.772 -42.954 -74.857  0.00  0.00    +0.000 C 
ATOM     28  C   UNL     1     -52.373 -42.758 -75.567  0.00  0.00    +0.000 C 
ENDBRANCH  24  26
ENDBRANCH  13  24
TORSDOF 5
ENDMDL
MODEL 4
REMARK VINA RESULT:    -6.579      2.200      4.085
REMARK INTER + INTRA:          -9.556
REMARK INTER:                  -8.059
REMARK INTRA:                  -1.497
REMARK UNBOUND:                -1.054
REMARK  Name = 
REMARK  8 active torsions:
REMARK  status: ('A' for Active; 'I' for Inactive)
REMARK    1  A    between atoms: C_1  and  C_2
REMARK    2  A    between atoms: C_4  and  C_5
REMARK    3  A    between atoms: C_5  and  S_6
REMARK    4  A    between atoms: S_6  and  C_8
REMARK    5  A    between atoms: C_20  and  C_21
REMARK    6  A    between atoms: C_21  and  C_23
REMARK    7  A    between atoms: C_23  and  C_24
REMARK    8  A    between atoms: C_23  and  C_25
REMARK                            x       y       z     vdW  Elec       q    Type
REMARK                         _______ _______ _______ _____ _____    ______ ____
ROOT
ATOM      1  C   UNL     1     -55.955 -42.102 -77.720  0.00  0.00    +0.000 A 
ATOM      2  N   UNL     1     -55.105 -41.041 -77.422  0.00  0.00    +0.000 N 
ATOM      3  C   UNL     1     -53.829 -41.251 -76.864  0.00  0.00    +0.000 A 
ATOM      4  C   UNL     1     -52.810 -40.283 -76.938  0.00  0.00    +0.000 A 
ATOM      5 BR   UNL     1     -53.048 -38.692 -77.944  0.00  0.00    +0.000 Br
ATOM      6  C   UNL     1     -51.579 -40.485 -76.308  0.00  0.00    +0.000 A 
ATOM      7  C   UNL     1     -51.347 -41.659 -75.599  0.00  0.00    +0.000 A 
ATOM      8  C   UNL     1     -52.349 -42.643 -75.518  0.00  0.00    +0.000 A 
ATOM      9 CL   UNL     1     -51.919 -44.086 -74.673  0.00  0.00    +0.000 Cl
ATOM     10  C   UNL     1     -53.594 -42.436 -76.148  0.00  0.00    +0.000 A 
ATOM     11  C   UNL     1     -54.726 -43.397 -76.095  0.00  0.00    +0.000 A 
ATOM     12  O   UNL     1     -54.806 -44.203 -75.173  0.00  0.00    +0.000 OA
ATOM     13  C   UNL     1     -55.784 -43.338 -77.193  0.00  0.00    +0.000 A 
ATOM     14  H   UNL     1     -55.190 -40.245 -78.069  0.00  0.00    +0.000 HD
ENDROOT
BRANCH   1  15
ATOM     15  S   UNL     1     -57.146 -41.659 -79.040  0.00  0.00    +0.000 S 
ATOM     16  O   UNL     1     -58.413 -42.359 -78.631  0.00  0.00    +0.000 OA
BRANCH  15  17
ATOM     17  C   UNL     1     -56.471 -42.499 -80.513  0.00  0.00    +0.000 C 
BRANCH  17  21
ATOM     18  C   UNL     1     -51.368 -42.635 -81.375  0.00  0.00    +0.000 C 
ATOM     19  C   UNL     1     -52.803 -42.391 -81.112  0.00  0.00    +0.000 A 
ATOM     20  C   UNL     1     -53.941 -43.166 -81.119  0.00  0.00    +0.000 A 
ATOM     21  C   UNL     1     -54.992 -42.284 -80.737  0.00  0.00    +0.000 A 
ATOM     22  N   UNL     1     -54.500 -41.049 -80.536  0.00  0.00    +0.000 NA
ATOM     23  O   UNL     1     -53.140 -41.122 -80.767  0.00  0.00    +0.000 OA
ENDBRANCH  17  21
ENDBRANCH  15  17
ENDBRANCH   1  15
BRANCH  13  24
ATOM     24  C   UNL     1     -56.453 -44.643 -77.563  0.00  0.00    +0.000 C 
ATOM     25  O   UNL     1     -57.521 -44.961 -77.041  0.00  0.00    +0.000 OA
BRANCH  24  26
ATOM     26  C   UNL     1     -55.776 -45.610 -78.536  0.00  0.00    +0.000 C 
ATOM     27  C   UNL     1     -55.164 -46.806 -77.812  0.00  0.00    +0.000 C 
ATOM     28  C   UNL     1     -56.736 -46.086 -79.629  0.00  0.00    +0.000 C 
ENDBRANCH  24  26
ENDBRANCH  13  24
TORSDOF 5
ENDMDL
MODEL 5
REMARK VINA RESULT:    -6.506      3.673      6.653
REMARK INTER + INTRA:          -9.462
REMARK INTER:                  -8.592
REMARK INTRA:                  -0.870
REMARK UNBOUND:                -1.054
REMARK  Name = 
REMARK  8 active torsions:
REMARK  status: ('A' for Active; 'I' for Inactive)
REMARK    1  A    between atoms: C_1  and  C_2
REMARK    2  A    between atoms: C_4  and  C_5
REMARK    3  A    between atoms: C_5  and  S_6
REMARK    4  A    between atoms: S_6  and  C_8
REMARK    5  A    between atoms: C_20  and  C_21
REMARK    6  A    between atoms: C_21  and  C_23
REMARK    7  A    between atoms: C_23  and  C_24
REMARK    8  A    between atoms: C_23  and  C_25
REMARK                            x       y       z     vdW  Elec       q    Type
REMARK                         _______ _______ _______ _____ _____    ______ ____
ROOT
ATOM      1  C   UNL     1     -55.440 -41.922 -77.863  0.00  0.00    +0.000 A 
ATOM      2  N   UNL     1     -56.715 -42.439 -77.656  0.00  0.00    +0.000 N 
ATOM      3  C   UNL     1     -57.340 -42.381 -76.395  0.00  0.00    +0.000 A 
ATOM      4  C   UNL     1     -58.734 -42.500 -76.244  0.00  0.00    +0.000 A 
ATOM      5 BR   UNL     1     -59.876 -42.586 -77.757  0.00  0.00    +0.000 Br
ATOM      6  C   UNL     1     -59.321 -42.517 -74.976  0.00  0.00    +0.000 A 
ATOM      7  C   UNL     1     -58.524 -42.409 -73.840  0.00  0.00    +0.000 A 
ATOM      8  C   UNL     1     -57.129 -42.281 -73.969  0.00  0.00    +0.000 A 
ATOM      9 CL   UNL     1     -56.253 -42.083 -72.494  0.00  0.00    +0.000 Cl
ATOM     10  C   UNL     1     -56.536 -42.271 -75.249  0.00  0.00    +0.000 A 
ATOM     11  C   UNL     1     -55.074 -42.174 -75.490  0.00  0.00    +0.000 A 
ATOM     12  O   UNL     1     -54.282 -42.523 -74.619  0.00  0.00    +0.000 OA
ATOM     13  C   UNL     1     -54.591 -41.656 -76.841  0.00  0.00    +0.000 A 
ATOM     14  H   UNL     1     -57.336 -42.357 -78.472  0.00  0.00    +0.000 HD
ENDROOT
BRANCH   1  15
ATOM     15  S   UNL     1     -55.177 -41.464 -79.618  0.00  0.00    +0.000 S 
ATOM     16  O   UNL     1     -56.555 -41.537 -80.218  0.00  0.00    +0.000 OA
BRANCH  15  17
ATOM     17  C   UNL     1     -54.189 -42.853 -80.269  0.00  0.00    +0.000 C 
BRANCH  17  21
ATOM     18  C   UNL     1     -50.528 -41.779 -83.769  0.00  0.00    +0.000 C 
ATOM     19  C   UNL     1     -51.710 -42.050 -82.922  0.00  0.00    +0.000 A 
ATOM     20  C   UNL     1     -51.905 -42.520 -81.643  0.00  0.00    +0.000 A 
ATOM     21  C   UNL     1     -53.317 -42.503 -81.452  0.00  0.00    +0.000 A 
ATOM     22  N   UNL     1     -53.921 -42.066 -82.570  0.00  0.00    +0.000 NA
ATOM     23  O   UNL     1     -52.919 -41.783 -83.479  0.00  0.00    +0.000 OA
ENDBRANCH  17  21
ENDBRANCH  15  17
ENDBRANCH   1  15
BRANCH  13  24
ATOM     24  C   UNL     1     -53.281 -40.899 -76.851  0.00  0.00    +0.000 C 
ATOM     25  O   UNL     1     -53.277 -39.669 -76.898  0.00  0.00    +0.000 OA
BRANCH  24  26
ATOM     26  C   UNL     1     -51.952 -41.654 -76.868  0.00  0.00    +0.000 C 
ATOM     27  C   UNL     1     -51.320 -41.655 -78.258  0.00  0.00    +0.000 C 
ATOM     28  C   UNL     1     -50.965 -41.101 -75.837  0.00  0.00    +0.000 C 
ENDBRANCH  24  26
ENDBRANCH  13  24
TORSDOF 5
ENDMDL
MODEL 6
REMARK VINA RESULT:    -6.239      3.878      6.592
REMARK INTER + INTRA:          -9.116
REMARK INTER:                  -8.222
REMARK INTRA:                  -0.894
REMARK UNBOUND:                -1.054
REMARK  Name = 
REMARK  8 active torsions:
REMARK  status: ('A' for Active; 'I' for Inactive)
REMARK    1  A    between atoms: C_1  and  C_2
REMARK    2  A    between atoms: C_4  and  C_5
REMARK    3  A    between atoms: C_5  and  S_6
REMARK    4  A    between atoms: S_6  and  C_8
REMARK    5  A    between atoms: C_20  and  C_21
REMARK    6  A    between atoms: C_21  and  C_23
REMARK    7  A    between atoms: C_23  and  C_24
REMARK    8  A    between atoms: C_23  and  C_25
REMARK                            x       y       z     vdW  Elec       q    Type
REMARK                         _______ _______ _______ _____ _____    ______ ____
ROOT
ATOM      1  C   UNL     1     -54.939 -41.701 -78.707  0.00  0.00    +0.000 A 
ATOM      2  N   UNL     1     -56.282 -42.037 -78.568  0.00  0.00    +0.000 N 
ATOM      3  C   UNL     1     -56.923 -42.016 -77.314  0.00  0.00    +0.000 A 
ATOM      4  C   UNL     1     -58.323 -41.938 -77.189  0.00  0.00    +0.000 A 
ATOM      5 BR   UNL     1     -59.425 -41.688 -78.712  0.00  0.00    +0.000 Br
ATOM      6  C   UNL     1     -58.937 -41.998 -75.935  0.00  0.00    +0.000 A 
ATOM      7  C   UNL     1     -58.162 -42.133 -74.788  0.00  0.00    +0.000 A 
ATOM      8  C   UNL     1     -56.761 -42.206 -74.890  0.00  0.00    +0.000 A 
ATOM      9 CL   UNL     1     -55.902 -42.301 -73.394  0.00  0.00    +0.000 Cl
ATOM     10  C   UNL     1     -56.141 -42.152 -76.155  0.00  0.00    +0.000 A 
ATOM     11  C   UNL     1     -54.675 -42.254 -76.372  0.00  0.00    +0.000 A 
ATOM     12  O   UNL     1     -53.967 -42.809 -75.537  0.00  0.00    +0.000 OA
ATOM     13  C   UNL     1     -54.085 -41.676 -77.655  0.00  0.00    +0.000 A 
ATOM     14  H   UNL     1     -56.863 -41.775 -79.377  0.00  0.00    +0.000 HD
ENDROOT
BRANCH   1  15
ATOM     15  S   UNL     1     -54.566 -41.106 -80.400  0.00  0.00    +0.000 S 
ATOM     16  O   UNL     1     -54.392 -39.622 -80.229  0.00  0.00    +0.000 OA
BRANCH  15  17
ATOM     17  C   UNL     1     -56.124 -41.406 -81.301  0.00  0.00    +0.000 C 
BRANCH  17  21
ATOM     18  C   UNL     1     -57.206 -39.155 -85.836  0.00  0.00    +0.000 C 
ATOM     19  C   UNL     1     -56.701 -39.803 -84.606  0.00  0.00    +0.000 A 
ATOM     20  C   UNL     1     -57.243 -40.133 -83.385  0.00  0.00    +0.000 A 
ATOM     21  C   UNL     1     -56.189 -40.773 -82.672  0.00  0.00    +0.000 A 
ATOM     22  N   UNL     1     -55.078 -40.800 -83.428  0.00  0.00    +0.000 NA
ATOM     23  O   UNL     1     -55.402 -40.199 -84.630  0.00  0.00    +0.000 OA
ENDBRANCH  17  21
ENDBRANCH  15  17
ENDBRANCH   1  15
BRANCH  13  24
ATOM     24  C   UNL     1     -52.677 -41.131 -77.571  0.00  0.00    +0.000 C 
ATOM     25  O   UNL     1     -51.764 -41.676 -78.190  0.00  0.00    +0.000 OA
BRANCH  24  26
ATOM     26  C   UNL     1     -52.363 -39.939 -76.666  0.00  0.00    +0.000 C 
ATOM     27  C   UNL     1     -50.903 -39.937 -76.219  0.00  0.00    +0.000 C 
ATOM     28  C   UNL     1     -52.717 -38.606 -77.330  0.00  0.00    +0.000 C 
ENDBRANCH  24  26
ENDBRANCH  13  24
TORSDOF 5
ENDMDL
MODEL 7
REMARK VINA RESULT:    -6.079      3.369      4.372
REMARK INTER + INTRA:          -8.909
REMARK INTER:                  -7.790
REMARK INTRA:                  -1.120
REMARK UNBOUND:                -1.054
REMARK  Name = 
REMARK  8 active torsions:
REMARK  status: ('A' for Active; 'I' for Inactive)
REMARK    1  A    between atoms: C_1  and  C_2
REMARK    2  A    between atoms: C_4  and  C_5
REMARK    3  A    between atoms: C_5  and  S_6
REMARK    4  A    between atoms: S_6  and  C_8
REMARK    5  A    between atoms: C_20  and  C_21
REMARK    6  A    between atoms: C_21  and  C_23
REMARK    7  A    between atoms: C_23  and  C_24
REMARK    8  A    between atoms: C_23  and  C_25
REMARK                            x       y       z     vdW  Elec       q    Type
REMARK                         _______ _______ _______ _____ _____    ______ ____
ROOT
ATOM      1  C   UNL     1     -54.755 -43.021 -79.765  0.00  0.00    +0.000 A 
ATOM      2  N   UNL     1     -54.811 -43.698 -78.550  0.00  0.00    +0.000 N 
ATOM      3  C   UNL     1     -54.062 -43.277 -77.435  0.00  0.00    +0.000 A 
ATOM      4  C   UNL     1     -54.396 -43.656 -76.121  0.00  0.00    +0.000 A 
ATOM      5 BR   UNL     1     -55.983 -44.631 -75.761  0.00  0.00    +0.000 Br
ATOM      6  C   UNL     1     -53.590 -43.289 -75.040  0.00  0.00    +0.000 A 
ATOM      7  C   UNL     1     -52.441 -42.534 -75.255  0.00  0.00    +0.000 A 
ATOM      8  C   UNL     1     -52.093 -42.138 -76.559  0.00  0.00    +0.000 A 
ATOM      9 CL   UNL     1     -50.687 -41.144 -76.693  0.00  0.00    +0.000 Cl
ATOM     10  C   UNL     1     -52.902 -42.514 -77.651  0.00  0.00    +0.000 A 
ATOM     11  C   UNL     1     -52.605 -42.175 -79.067  0.00  0.00    +0.000 A 
ATOM     12  O   UNL     1     -51.452 -41.932 -79.411  0.00  0.00    +0.000 OA
ATOM     13  C   UNL     1     -53.754 -42.161 -80.070  0.00  0.00    +0.000 A 
ATOM     14  H   UNL     1     -55.731 -44.113 -78.346  0.00  0.00    +0.000 HD
ENDROOT
BRANCH   1  15
ATOM     15  S   UNL     1     -56.279 -43.280 -80.749  0.00  0.00    +0.000 S 
ATOM     16  O   UNL     1     -55.815 -43.136 -82.174  0.00  0.00    +0.000 OA
BRANCH  15  17
ATOM     17  C   UNL     1     -57.303 -41.831 -80.326  0.00  0.00    +0.000 C 
BRANCH  17  21
ATOM     18  C   UNL     1     -57.559 -40.664 -75.288  0.00  0.00    +0.000 C 
ATOM     19  C   UNL     1     -57.643 -41.127 -76.691  0.00  0.00    +0.000 A 
ATOM     20  C   UNL     1     -57.044 -40.763 -77.875  0.00  0.00    +0.000 A 
ATOM     21  C   UNL     1     -57.570 -41.660 -78.848  0.00  0.00    +0.000 A 
ATOM     22  N   UNL     1     -58.450 -42.495 -78.269  0.00  0.00    +0.000 NA
ATOM     23  O   UNL     1     -58.489 -42.162 -76.929  0.00  0.00    +0.000 OA
ENDBRANCH  17  21
ENDBRANCH  15  17
ENDBRANCH   1  15
BRANCH  13  24
ATOM     24  C   UNL     1     -53.641 -41.185 -81.219  0.00  0.00    +0.000 C 
ATOM     25  O   UNL     1     -54.281 -40.134 -81.204  0.00  0.00    +0.000 OA
BRANCH  24  26
ATOM     26  C   UNL     1     -52.784 -41.523 -82.439  0.00  0.00    +0.000 C 
ATOM     27  C   UNL     1     -52.442 -43.009 -82.496  0.00  0.00    +0.000 C 
ATOM     28  C   UNL     1     -53.449 -41.080 -83.746  0.00  0.00    +0.000 C 
ENDBRANCH  24  26
ENDBRANCH  13  24
TORSDOF 5
ENDMDL
MODEL 8
REMARK VINA RESULT:    -6.045      3.385      6.276
REMARK INTER + INTRA:          -8.865
REMARK INTER:                  -8.005
REMARK INTRA:                  -0.860
REMARK UNBOUND:                -1.054
REMARK  Name = 
REMARK  8 active torsions:
REMARK  status: ('A' for Active; 'I' for Inactive)
REMARK    1  A    between atoms: C_1  and  C_2
REMARK    2  A    between atoms: C_4  and  C_5
REMARK    3  A    between atoms: C_5  and  S_6
REMARK    4  A    between atoms: S_6  and  C_8
REMARK    5  A    between atoms: C_20  and  C_21
REMARK    6  A    between atoms: C_21  and  C_23
REMARK    7  A    between atoms: C_23  and  C_24
REMARK    8  A    between atoms: C_23  and  C_25
REMARK                            x       y       z     vdW  Elec       q    Type
REMARK                         _______ _______ _______ _____ _____    ______ ____
ROOT
ATOM      1  C   UNL     1     -55.133 -42.073 -77.775  0.00  0.00    +0.000 A 
ATOM      2  N   UNL     1     -55.400 -42.265 -79.127  0.00  0.00    +0.000 N 
ATOM      3  C   UNL     1     -56.536 -42.976 -79.562  0.00  0.00    +0.000 A 
ATOM      4  C   UNL     1     -57.054 -42.837 -80.864  0.00  0.00    +0.000 A 
ATOM      5 BR   UNL     1     -56.343 -41.552 -82.065  0.00  0.00    +0.000 Br
ATOM      6  C   UNL     1     -58.134 -43.612 -81.294  0.00  0.00    +0.000 A 
ATOM      7  C   UNL     1     -58.716 -44.534 -80.429  0.00  0.00    +0.000 A 
ATOM      8  C   UNL     1     -58.219 -44.683 -79.122  0.00  0.00    +0.000 A 
ATOM      9 CL   UNL     1     -59.066 -45.804 -78.118  0.00  0.00    +0.000 Cl
ATOM     10  C   UNL     1     -57.124 -43.906 -78.690  0.00  0.00    +0.000 A 
ATOM     11  C   UNL     1     -56.505 -44.011 -77.343  0.00  0.00    +0.000 A 
ATOM     12  O   UNL     1     -56.619 -45.046 -76.693  0.00  0.00    +0.000 OA
ATOM     13  C   UNL     1     -55.716 -42.820 -76.808  0.00  0.00    +0.000 A 
ATOM     14  H   UNL     1     -55.098 -41.485 -79.728  0.00  0.00    +0.000 HD
ENDROOT
BRANCH   1  15
ATOM     15  S   UNL     1     -54.101 -40.583 -77.500  0.00  0.00    +0.000 S 
ATOM     16  O   UNL     1     -53.908 -40.019 -78.882  0.00  0.00    +0.000 OA
BRANCH  15  17
ATOM     17  C   UNL     1     -52.512 -41.275 -76.930  0.00  0.00    +0.000 C 
BRANCH  17  21
ATOM     18  C   UNL     1     -48.817 -38.489 -74.608  0.00  0.00    +0.000 C 
ATOM     19  C   UNL     1     -49.949 -39.103 -75.336  0.00  0.00    +0.000 A 
ATOM     20  C   UNL     1     -50.325 -40.391 -75.644  0.00  0.00    +0.000 A 
ATOM     21  C   UNL     1     -51.557 -40.258 -76.349  0.00  0.00    +0.000 A 
ATOM     22  N   UNL     1     -51.876 -38.958 -76.467  0.00  0.00    +0.000 NA
ATOM     23  O   UNL     1     -50.876 -38.245 -75.833  0.00  0.00    +0.000 OA
ENDBRANCH  17  21
ENDBRANCH  15  17
ENDBRANCH   1  15
BRANCH  13  24
ATOM     24  C   UNL     1     -55.725 -42.617 -75.309  0.00  0.00    +0.000 C 
ATOM     25  O   UNL     1     -54.704 -42.814 -74.652  0.00  0.00    +0.000 OA
BRANCH  24  26
ATOM     26  C   UNL     1     -57.017 -42.230 -74.589  0.00  0.00    +0.000 C 
ATOM     27  C   UNL     1     -56.922 -42.472 -73.085  0.00  0.00    +0.000 C 
ATOM     28  C   UNL     1     -57.415 -40.778 -74.870  0.00  0.00    +0.000 C 
ENDBRANCH  24  26
ENDBRANCH  13  24
TORSDOF 5
ENDMDL
MODEL 9
REMARK VINA RESULT:    -5.997     11.999     14.760
REMARK INTER + INTRA:          -8.804
REMARK INTER:                  -7.800
REMARK INTRA:                  -1.003
REMARK UNBOUND:                -1.054
REMARK  Name = 
REMARK  8 active torsions:
REMARK  status: ('A' for Active; 'I' for Inactive)
REMARK    1  A    between atoms: C_1  and  C_2
REMARK    2  A    between atoms: C_4  and  C_5
REMARK    3  A    between atoms: C_5  and  S_6
REMARK    4  A    between atoms: S_6  and  C_8
REMARK    5  A    between atoms: C_20  and  C_21
REMARK    6  A    between atoms: C_21  and  C_23
REMARK    7  A    between atoms: C_23  and  C_24
REMARK    8  A    between atoms: C_23  and  C_25
REMARK                            x       y       z     vdW  Elec       q    Type
REMARK                         _______ _______ _______ _____ _____    ______ ____
ROOT
ATOM      1  C   UNL     1     -55.907 -41.150 -62.296  0.00  0.00    +0.000 A 
ATOM      2  N   UNL     1     -55.892 -40.216 -61.265  0.00  0.00    +0.000 N 
ATOM      3  C   UNL     1     -55.947 -38.832 -61.521  0.00  0.00    +0.000 A 
ATOM      4  C   UNL     1     -56.347 -37.904 -60.542  0.00  0.00    +0.000 A 
ATOM      5 BR   UNL     1     -56.997 -38.484 -58.857  0.00  0.00    +0.000 Br
ATOM      6  C   UNL     1     -56.318 -36.530 -60.798  0.00  0.00    +0.000 A 
ATOM      7  C   UNL     1     -55.892 -36.064 -62.038  0.00  0.00    +0.000 A 
ATOM      8  C   UNL     1     -55.495 -36.975 -63.034  0.00  0.00    +0.000 A 
ATOM      9 CL   UNL     1     -55.056 -36.283 -64.554  0.00  0.00    +0.000 Cl
ATOM     10  C   UNL     1     -55.518 -38.361 -62.773  0.00  0.00    +0.000 A 
ATOM     11  C   UNL     1     -55.088 -39.400 -63.744  0.00  0.00    +0.000 A 
ATOM     12  O   UNL     1     -54.303 -39.115 -64.643  0.00  0.00    +0.000 OA
ATOM     13  C   UNL     1     -55.626 -40.818 -63.579  0.00  0.00    +0.000 A 
ATOM     14  H   UNL     1     -56.360 -40.535 -60.406  0.00  0.00    +0.000 HD
ENDROOT
BRANCH   1  15
ATOM     15  S   UNL     1     -56.551 -42.768 -61.727  0.00  0.00    +0.000 S 
ATOM     16  O   UNL     1     -57.701 -42.401 -60.829  0.00  0.00    +0.000 OA
BRANCH  15  17
ATOM     17  C   UNL     1     -55.195 -43.420 -60.695  0.00  0.00    +0.000 C 
BRANCH  17  21
ATOM     18  C   UNL     1     -51.519 -45.355 -63.784  0.00  0.00    +0.000 C 
ATOM     19  C   UNL     1     -52.565 -44.985 -62.805  0.00  0.00    +0.000 A 
ATOM     20  C   UNL     1     -53.243 -43.829 -62.493  0.00  0.00    +0.000 A 
ATOM     21  C   UNL     1     -54.145 -44.197 -61.454  0.00  0.00    +0.000 A 
ATOM     22  N   UNL     1     -53.990 -45.498 -61.156  0.00  0.00    +0.000 NA
ATOM     23  O   UNL     1     -53.010 -45.984 -62.000  0.00  0.00    +0.000 OA
ENDBRANCH  17  21
ENDBRANCH  15  17
ENDBRANCH   1  15
BRANCH  13  24
ATOM     24  C   UNL     1     -55.807 -41.628 -64.844  0.00  0.00    +0.000 C 
ATOM     25  O   UNL     1     -54.863 -42.263 -65.312  0.00  0.00    +0.000 OA
BRANCH  24  26
ATOM     26  C   UNL     1     -57.142 -41.610 -65.589  0.00  0.00    +0.000 C 
ATOM     27  C   UNL     1     -56.947 -41.523 -67.100  0.00  0.00    +0.000 C 
ATOM     28  C   UNL     1     -58.011 -42.821 -65.235  0.00  0.00    +0.000 C 
ENDBRANCH  24  26
ENDBRANCH  13  24
TORSDOF 5
ENDMDL
MODEL 10
REMARK VINA RESULT:    -5.958      6.256      8.289
REMARK INTER + INTRA:          -8.753
REMARK INTER:                  -7.813
REMARK INTRA:                  -0.940
REMARK UNBOUND:                -1.054
REMARK  Name = 
REMARK  8 active torsions:
REMARK  status: ('A' for Active; 'I' for Inactive)
REMARK    1  A    between atoms: C_1  and  C_2
REMARK    2  A    between atoms: C_4  and  C_5
REMARK    3  A    between atoms: C_5  and  S_6
REMARK    4  A    between atoms: S_6  and  C_8
REMARK    5  A    between atoms: C_20  and  C_21
REMARK    6  A    between atoms: C_21  and  C_23
REMARK    7  A    between atoms: C_23  and  C_24
REMARK    8  A    between atoms: C_23  and  C_25
REMARK                            x       y       z     vdW  Elec       q    Type
REMARK                         _______ _______ _______ _____ _____    ______ ____
ROOT
ATOM      1  C   UNL     1     -55.012 -41.264 -82.373  0.00  0.00    +0.000 A 
ATOM      2  N   UNL     1     -56.234 -40.677 -82.689  0.00  0.00    +0.000 N 
ATOM      3  C   UNL     1     -56.814 -40.820 -83.964  0.00  0.00    +0.000 A 
ATOM      4  C   UNL     1     -58.188 -40.612 -84.189  0.00  0.00    +0.000 A 
ATOM      5 BR   UNL     1     -59.375 -40.283 -82.746  0.00  0.00    +0.000 Br
ATOM      6  C   UNL     1     -58.724 -40.685 -85.478  0.00  0.00    +0.000 A 
ATOM      7  C   UNL     1     -57.896 -40.971 -86.560  0.00  0.00    +0.000 A 
ATOM      8  C   UNL     1     -56.522 -41.189 -86.355  0.00  0.00    +0.000 A 
ATOM      9 CL   UNL     1     -55.610 -41.606 -87.761  0.00  0.00    +0.000 Cl
ATOM     10  C   UNL     1     -55.979 -41.109 -85.056  0.00  0.00    +0.000 A 
ATOM     11  C   UNL     1     -54.539 -41.290 -84.740  0.00  0.00    +0.000 A 
ATOM     12  O   UNL     1     -53.690 -41.095 -85.604  0.00  0.00    +0.000 OA
ATOM     13  C   UNL     1     -54.150 -41.699 -83.322  0.00  0.00    +0.000 A 
ATOM     14  H   UNL     1     -56.889 -40.626 -81.897  0.00  0.00    +0.000 HD
ENDROOT
BRANCH   1  15
ATOM     15  S   UNL     1     -54.853 -41.553 -80.570  0.00  0.00    +0.000 S 
ATOM     16  O   UNL     1     -56.277 -41.605 -80.087  0.00  0.00    +0.000 OA
BRANCH  15  17
ATOM     17  C   UNL     1     -54.092 -40.009 -79.964  0.00  0.00    +0.000 C 
BRANCH  17  21
ATOM     18  C   UNL     1     -51.045 -41.378 -76.009  0.00  0.00    +0.000 C 
ATOM     19  C   UNL     1     -51.931 -40.803 -77.044  0.00  0.00    +0.000 A 
ATOM     20  C   UNL     1     -52.390 -41.218 -78.273  0.00  0.00    +0.000 A 
ATOM     21  C   UNL     1     -53.246 -40.171 -78.723  0.00  0.00    +0.000 A 
ATOM     22  N   UNL     1     -53.270 -39.181 -77.813  0.00  0.00    +0.000 NA
ATOM     23  O   UNL     1     -52.455 -39.580 -76.771  0.00  0.00    +0.000 OA
ENDBRANCH  17  21
ENDBRANCH  15  17
ENDBRANCH   1  15
BRANCH  13  24
ATOM     24  C   UNL     1     -52.906 -42.547 -83.176  0.00  0.00    +0.000 C 
ATOM     25  O   UNL     1     -52.941 -43.748 -83.441  0.00  0.00    +0.000 OA
BRANCH  24  26
ATOM     26  C   UNL     1     -51.612 -41.935 -82.637  0.00  0.00    +0.000 C 
ATOM     27  C   UNL     1     -51.050 -42.739 -81.468  0.00  0.00    +0.000 C 
ATOM     28  C   UNL     1     -50.554 -41.779 -83.732  0.00  0.00    +0.000 C 
ENDBRANCH  24  26
ENDBRANCH  13  24
TORSDOF 5
ENDMDL
MODEL 11
REMARK VINA RESULT:    -5.918      3.620      5.609
REMARK INTER + INTRA:          -8.701
REMARK INTER:                  -7.910
REMARK INTRA:                  -0.791
REMARK UNBOUND:                -1.054
REMARK  Name = 
REMARK  8 active torsions:
REMARK  status: ('A' for Active; 'I' for Inactive)
REMARK    1  A    between atoms: C_1  and  C_2
REMARK    2  A    between atoms: C_4  and  C_5
REMARK    3  A    between atoms: C_5  and  S_6
REMARK    4  A    between atoms: S_6  and  C_8
REMARK    5  A    between atoms: C_20  and  C_21
REMARK    6  A    between atoms: C_21  and  C_23
REMARK    7  A    between atoms: C_23  and  C_24
REMARK    8  A    between atoms: C_23  and  C_25
REMARK                            x       y       z     vdW  Elec       q    Type
REMARK                         _______ _______ _______ _____ _____    ______ ____
ROOT
ATOM      1  C   UNL     1     -55.225 -41.967 -77.787  0.00  0.00    +0.000 A 
ATOM      2  N   UNL     1     -56.455 -42.162 -78.408  0.00  0.00    +0.000 N 
ATOM      3  C   UNL     1     -56.594 -42.095 -79.808  0.00  0.00    +0.000 A 
ATOM      4  C   UNL     1     -57.682 -42.682 -80.482  0.00  0.00    +0.000 A 
ATOM      5 BR   UNL     1     -58.948 -43.743 -79.551  0.00  0.00    +0.000 Br
ATOM      6  C   UNL     1     -57.836 -42.533 -81.863  0.00  0.00    +0.000 A 
ATOM      7  C   UNL     1     -56.903 -41.801 -82.592  0.00  0.00    +0.000 A 
ATOM      8  C   UNL     1     -55.805 -41.213 -81.939  0.00  0.00    +0.000 A 
ATOM      9 CL   UNL     1     -54.678 -40.391 -82.956  0.00  0.00    +0.000 Cl
ATOM     10  C   UNL     1     -55.653 -41.357 -80.544  0.00  0.00    +0.000 A 
ATOM     11  C   UNL     1     -54.548 -40.749 -79.758  0.00  0.00    +0.000 A 
ATOM     12  O   UNL     1     -53.963 -39.759 -80.184  0.00  0.00    +0.000 OA
ATOM     13  C   UNL     1     -54.183 -41.371 -78.413  0.00  0.00    +0.000 A 
ATOM     14  H   UNL     1     -57.064 -42.838 -77.926  0.00  0.00    +0.000 HD
ENDROOT
BRANCH   1  15
ATOM     15  S   UNL     1     -55.158 -42.798 -76.154  0.00  0.00    +0.000 S 
ATOM     16  O   UNL     1     -55.084 -44.261 -76.499  0.00  0.00    +0.000 OA
BRANCH  15  17
ATOM     17  C   UNL     1     -56.802 -42.454 -75.441  0.00  0.00    +0.000 C 
BRANCH  17  21
ATOM     18  C   UNL     1     -56.271 -41.027 -70.494  0.00  0.00    +0.000 C 
ATOM     19  C   UNL     1     -56.521 -41.254 -71.934  0.00  0.00    +0.000 A 
ATOM     20  C   UNL     1     -56.139 -42.207 -72.850  0.00  0.00    +0.000 A 
ATOM     21  C   UNL     1     -56.773 -41.825 -74.068  0.00  0.00    +0.000 A 
ATOM     22  N   UNL     1     -57.473 -40.693 -73.881  0.00  0.00    +0.000 NA
ATOM     23  O   UNL     1     -57.316 -40.345 -72.553  0.00  0.00    +0.000 OA
ENDBRANCH  17  21
ENDBRANCH  15  17
ENDBRANCH   1  15
BRANCH  13  24
ATOM     24  C   UNL     1     -52.734 -41.274 -77.991  0.00  0.00    +0.000 C 
ATOM     25  O   UNL     1     -51.873 -41.926 -78.579  0.00  0.00    +0.000 OA
BRANCH  24  26
ATOM     26  C   UNL     1     -52.335 -40.417 -76.788  0.00  0.00    +0.000 C 
ATOM     27  C   UNL     1     -50.912 -40.718 -76.326  0.00  0.00    +0.000 C 
ATOM     28  C   UNL     1     -52.496 -38.921 -77.073  0.00  0.00    +0.000 C 
ENDBRANCH  24  26
ENDBRANCH  13  24
TORSDOF 5
ENDMDL
MODEL 12
REMARK VINA RESULT:    -5.782      3.204      4.604
REMARK INTER + INTRA:          -8.526
REMARK INTER:                  -7.716
REMARK INTRA:                  -0.810
REMARK UNBOUND:                -1.054
REMARK  Name = 
REMARK  8 active torsions:
REMARK  status: ('A' for Active; 'I' for Inactive)
REMARK    1  A    between atoms: C_1  and  C_2
REMARK    2  A    between atoms: C_4  and  C_5
REMARK    3  A    between atoms: C_5  and  S_6
REMARK    4  A    between atoms: S_6  and  C_8
REMARK    5  A    between atoms: C_20  and  C_21
REMARK    6  A    between atoms: C_21  and  C_23
REMARK    7  A    between atoms: C_23  and  C_24
REMARK    8  A    between atoms: C_23  and  C_25
REMARK                            x       y       z     vdW  Elec       q    Type
REMARK                         _______ _______ _______ _____ _____    ______ ____
ROOT
ATOM      1  C   UNL     1     -57.063 -41.597 -78.338  0.00  0.00    +0.000 A 
ATOM      2  N   UNL     1     -56.146 -41.174 -79.295  0.00  0.00    +0.000 N 
ATOM      3  C   UNL     1     -54.775 -41.477 -79.190  0.00  0.00    +0.000 A 
ATOM      4  C   UNL     1     -53.911 -41.440 -80.302  0.00  0.00    +0.000 A 
ATOM      5 BR   UNL     1     -54.584 -41.134 -82.049  0.00  0.00    +0.000 Br
ATOM      6  C   UNL     1     -52.540 -41.669 -80.155  0.00  0.00    +0.000 A 
ATOM      7  C   UNL     1     -52.013 -41.944 -78.897  0.00  0.00    +0.000 A 
ATOM      8  C   UNL     1     -52.859 -41.994 -77.774  0.00  0.00    +0.000 A 
ATOM      9 CL   UNL     1     -52.102 -42.414 -76.281  0.00  0.00    +0.000 Cl
ATOM     10  C   UNL     1     -54.241 -41.755 -77.921  0.00  0.00    +0.000 A 
ATOM     11  C   UNL     1     -55.212 -41.752 -76.796  0.00  0.00    +0.000 A 
ATOM     12  O   UNL     1     -54.826 -41.532 -75.652  0.00  0.00    +0.000 OA
ATOM     13  C   UNL     1     -56.685 -42.006 -77.103  0.00  0.00    +0.000 A 
ATOM     14  H   UNL     1     -56.528 -41.135 -80.250  0.00  0.00    +0.000 HD
ENDROOT
BRANCH   1  15
ATOM     15  S   UNL     1     -58.752 -41.728 -79.037  0.00  0.00    +0.000 S 
ATOM     16  O   UNL     1     -58.550 -41.494 -80.509  0.00  0.00    +0.000 OA
BRANCH  15  17
ATOM     17  C   UNL     1     -59.610 -40.280 -78.333  0.00  0.00    +0.000 C 
BRANCH  17  21
ATOM     18  C   UNL     1     -63.089 -37.654 -81.126  0.00  0.00    +0.000 C 
ATOM     19  C   UNL     1     -62.206 -38.573 -80.375  0.00  0.00    +0.000 A 
ATOM     20  C   UNL     1     -61.001 -38.449 -79.722  0.00  0.00    +0.000 A 
ATOM     21  C   UNL     1     -60.736 -39.742 -79.185  0.00  0.00    +0.000 A 
ATOM     22  N   UNL     1     -61.725 -40.587 -79.524  0.00  0.00    +0.000 NA
ATOM     23  O   UNL     1     -62.637 -39.855 -80.260  0.00  0.00    +0.000 OA
ENDBRANCH  17  21
ENDBRANCH  15  17
ENDBRANCH   1  15
BRANCH  13  24
ATOM     24  C   UNL     1     -57.493 -42.698 -76.029  0.00  0.00    +0.000 C 
ATOM     25  O   UNL     1     -57.491 -43.926 -75.947  0.00  0.00    +0.000 OA
BRANCH  24  26
ATOM     26  C   UNL     1     -58.372 -41.885 -75.078  0.00  0.00    +0.000 C 
ATOM     27  C   UNL     1     -58.425 -42.507 -73.685  0.00  0.00    +0.000 C 
ATOM     28  C   UNL     1     -57.920 -40.424 -74.990  0.00  0.00    +0.000 C 
ENDBRANCH  24  26
ENDBRANCH  13  24
TORSDOF 5
ENDMDL
MODEL 13
REMARK VINA RESULT:    -5.755     22.827     26.028
REMARK INTER + INTRA:          -8.491
REMARK INTER:                  -7.619
REMARK INTRA:                  -0.872
REMARK UNBOUND:                -1.054
REMARK  Name = 
REMARK  8 active torsions:
REMARK  status: ('A' for Active; 'I' for Inactive)
REMARK    1  A    between atoms: C_1  and  C_2
REMARK    2  A    between atoms: C_4  and  C_5
REMARK    3  A    between atoms: C_5  and  S_6
REMARK    4  A    between atoms: S_6  and  C_8
REMARK    5  A    between atoms: C_20  and  C_21
REMARK    6  A    between atoms: C_21  and  C_23
REMARK    7  A    between atoms: C_23  and  C_24
REMARK    8  A    between atoms: C_23  and  C_25
REMARK                            x       y       z     vdW  Elec       q    Type
REMARK                         _______ _______ _______ _____ _____    ______ ____
ROOT
ATOM      1  C   UNL     1     -67.164 -49.765 -54.674  0.00  0.00    +0.000 A 
ATOM      2  N   UNL     1     -67.851 -50.779 -55.333  0.00  0.00    +0.000 N 
ATOM      3  C   UNL     1     -67.974 -52.069 -54.780  0.00  0.00    +0.000 A 
ATOM      4  C   UNL     1     -68.977 -52.967 -55.189  0.00  0.00    +0.000 A 
ATOM      5 BR   UNL     1     -70.331 -52.430 -56.404  0.00  0.00    +0.000 Br
ATOM      6  C   UNL     1     -69.028 -54.268 -54.680  0.00  0.00    +0.000 A 
ATOM      7  C   UNL     1     -68.081 -54.688 -53.751  0.00  0.00    +0.000 A 
ATOM      8  C   UNL     1     -67.075 -53.803 -53.322  0.00  0.00    +0.000 A 
ATOM      9 CL   UNL     1     -66.002 -54.413 -52.115  0.00  0.00    +0.000 Cl
ATOM     10  C   UNL     1     -67.019 -52.493 -53.842  0.00  0.00    +0.000 A 
ATOM     11  C   UNL     1     -65.979 -51.496 -53.479  0.00  0.00    +0.000 A 
ATOM     12  O   UNL     1     -64.889 -51.869 -53.056  0.00  0.00    +0.000 OA
ATOM     13  C   UNL     1     -66.293 -50.014 -53.667  0.00  0.00    +0.000 A 
ATOM     14  H   UNL     1     -68.651 -50.448 -55.889  0.00  0.00    +0.000 HD
ENDROOT
BRANCH   1  15
ATOM     15  S   UNL     1     -67.752 -48.108 -55.192  0.00  0.00    +0.000 S 
ATOM     16  O   UNL     1     -69.109 -47.992 -54.551  0.00  0.00    +0.000 OA
BRANCH  15  17
ATOM     17  C   UNL     1     -67.979 -48.289 -56.994  0.00  0.00    +0.000 C 
BRANCH  17  21
ATOM     18  C   UNL     1     -64.299 -47.264 -60.488  0.00  0.00    +0.000 C 
ATOM     19  C   UNL     1     -65.234 -47.448 -59.357  0.00  0.00    +0.000 A 
ATOM     20  C   UNL     1     -66.492 -47.987 -59.211  0.00  0.00    +0.000 A 
ATOM     21  C   UNL     1     -66.789 -47.864 -57.822  0.00  0.00    +0.000 A 
ATOM     22  N   UNL     1     -65.765 -47.264 -57.190  0.00  0.00    +0.000 NA
ATOM     23  O   UNL     1     -64.801 -47.012 -58.146  0.00  0.00    +0.000 OA
ENDBRANCH  17  21
ENDBRANCH  15  17
ENDBRANCH   1  15
BRANCH  13  24
ATOM     24  C   UNL     1     -65.637 -49.053 -52.702  0.00  0.00    +0.000 C 
ATOM     25  O   UNL     1     -66.232 -48.693 -51.686  0.00  0.00    +0.000 OA
BRANCH  24  26
ATOM     26  C   UNL     1     -64.258 -48.468 -53.010  0.00  0.00    +0.000 C 
ATOM     27  C   UNL     1     -63.801 -48.813 -54.426  0.00  0.00    +0.000 C 
ATOM     28  C   UNL     1     -64.217 -46.953 -52.793  0.00  0.00    +0.000 C 
ENDBRANCH  24  26
ENDBRANCH  13  24
TORSDOF 5
ENDMDL
MODEL 14
REMARK VINA RESULT:    -5.630     12.461     15.164
REMARK INTER + INTRA:          -8.329
REMARK INTER:                  -7.510
REMARK INTRA:                  -0.819
REMARK UNBOUND:                -1.054
REMARK  Name = 
REMARK  8 active torsions:
REMARK  status: ('A' for Active; 'I' for Inactive)
REMARK    1  A    between atoms: C_1  and  C_2
REMARK    2  A    between atoms: C_4  and  C_5
REMARK    3  A    between atoms: C_5  and  S_6
REMARK    4  A    between atoms: S_6  and  C_8
REMARK    5  A    between atoms: C_20  and  C_21
REMARK    6  A    between atoms: C_21  and  C_23
REMARK    7  A    between atoms: C_23  and  C_24
REMARK    8  A    between atoms: C_23  and  C_25
REMARK                            x       y       z     vdW  Elec       q    Type
REMARK                         _______ _______ _______ _____ _____    ______ ____
ROOT
ATOM      1  C   UNL     1     -58.186 -39.995 -62.369  0.00  0.00    +0.000 A 
ATOM      2  N   UNL     1     -58.814 -38.842 -61.909  0.00  0.00    +0.000 N 
ATOM      3  C   UNL     1     -58.300 -37.560 -62.186  0.00  0.00    +0.000 A 
ATOM      4  C   UNL     1     -59.095 -36.401 -62.110  0.00  0.00    +0.000 A 
ATOM      5 BR   UNL     1     -60.961 -36.518 -61.785  0.00  0.00    +0.000 Br
ATOM      6  C   UNL     1     -58.541 -35.134 -62.314  0.00  0.00    +0.000 A 
ATOM      7  C   UNL     1     -57.185 -35.007 -62.601  0.00  0.00    +0.000 A 
ATOM      8  C   UNL     1     -56.374 -36.154 -62.689  0.00  0.00    +0.000 A 
ATOM      9 CL   UNL     1     -54.726 -35.876 -63.122  0.00  0.00    +0.000 Cl
ATOM     10  C   UNL     1     -56.932 -37.431 -62.477  0.00  0.00    +0.000 A 
ATOM     11  C   UNL     1     -56.156 -38.698 -62.515  0.00  0.00    +0.000 A 
ATOM     12  O   UNL     1     -54.946 -38.684 -62.308  0.00  0.00    +0.000 OA
ATOM     13  C   UNL     1     -56.900 -40.001 -62.793  0.00  0.00    +0.000 A 
ATOM     14  H   UNL     1     -59.840 -38.916 -61.860  0.00  0.00    +0.000 HD
ENDROOT
BRANCH   1  15
ATOM     15  S   UNL     1     -59.368 -41.388 -62.522  0.00  0.00    +0.000 S 
ATOM     16  O   UNL     1     -60.716 -40.724 -62.456  0.00  0.00    +0.000 OA
BRANCH  15  17
ATOM     17  C   UNL     1     -59.111 -42.327 -60.979  0.00  0.00    +0.000 C 
BRANCH  17  21
ATOM     18  C   UNL     1     -61.822 -46.733 -61.171  0.00  0.00    +0.000 C 
ATOM     19  C   UNL     1     -61.151 -45.434 -60.941  0.00  0.00    +0.000 A 
ATOM     20  C   UNL     1     -60.110 -44.757 -61.534  0.00  0.00    +0.000 A 
ATOM     21  C   UNL     1     -60.010 -43.530 -60.818  0.00  0.00    +0.000 A 
ATOM     22  N   UNL     1     -60.933 -43.497 -59.840  0.00  0.00    +0.000 NA
ATOM     23  O   UNL     1     -61.641 -44.681 -59.924  0.00  0.00    +0.000 OA
ENDBRANCH  17  21
ENDBRANCH  15  17
ENDBRANCH   1  15
BRANCH  13  24
ATOM     24  C   UNL     1     -56.131 -41.080 -63.522  0.00  0.00    +0.000 C 
ATOM     25  O   UNL     1     -55.833 -42.125 -62.944  0.00  0.00    +0.000 OA
BRANCH  24  26
ATOM     26  C   UNL     1     -55.660 -40.856 -64.959  0.00  0.00    +0.000 C 
ATOM     27  C   UNL     1     -54.159 -41.094 -65.106  0.00  0.00    +0.000 C 
ATOM     28  C   UNL     1     -56.435 -41.721 -65.956  0.00  0.00    +0.000 C 
ENDBRANCH  24  26
ENDBRANCH  13  24
TORSDOF 5
ENDMDL
MODEL 15
REMARK VINA RESULT:    -5.565      4.049      7.018
REMARK INTER + INTRA:          -8.245
REMARK INTER:                  -7.190
REMARK INTRA:                  -1.055
REMARK UNBOUND:                -1.054
REMARK  Name = 
REMARK  8 active torsions:
REMARK  status: ('A' for Active; 'I' for Inactive)
REMARK    1  A    between atoms: C_1  and  C_2
REMARK    2  A    between atoms: C_4  and  C_5
REMARK    3  A    between atoms: C_5  and  S_6
REMARK    4  A    between atoms: S_6  and  C_8
REMARK    5  A    between atoms: C_20  and  C_21
REMARK    6  A    between atoms: C_21  and  C_23
REMARK    7  A    between atoms: C_23  and  C_24
REMARK    8  A    between atoms: C_23  and  C_25
REMARK                            x       y       z     vdW  Elec       q    Type
REMARK                         _______ _______ _______ _____ _____    ______ ____
ROOT
ATOM      1  C   UNL     1     -56.251 -42.532 -78.915  0.00  0.00    +0.000 A 
ATOM      2  N   UNL     1     -57.589 -42.427 -78.548  0.00  0.00    +0.000 N 
ATOM      3  C   UNL     1     -58.623 -42.458 -79.505  0.00  0.00    +0.000 A 
ATOM      4  C   UNL     1     -59.952 -42.771 -79.163  0.00  0.00    +0.000 A 
ATOM      5 BR   UNL     1     -60.401 -43.334 -77.408  0.00  0.00    +0.000 Br
ATOM      6  C   UNL     1     -60.971 -42.718 -80.118  0.00  0.00    +0.000 A 
ATOM      7  C   UNL     1     -60.677 -42.355 -81.429  0.00  0.00    +0.000 A 
ATOM      8  C   UNL     1     -59.354 -42.045 -81.793  0.00  0.00    +0.000 A 
ATOM      9 CL   UNL     1     -59.100 -41.680 -83.461  0.00  0.00    +0.000 Cl
ATOM     10  C   UNL     1     -58.326 -42.092 -80.828  0.00  0.00    +0.000 A 
ATOM     11  C   UNL     1     -56.907 -41.752 -81.104  0.00  0.00    +0.000 A 
ATOM     12  O   UNL     1     -56.622 -41.015 -82.043  0.00  0.00    +0.000 OA
ATOM     13  C   UNL     1     -55.829 -42.320 -80.185  0.00  0.00    +0.000 A 
ATOM     14  H   UNL     1     -57.806 -42.852 -77.636  0.00  0.00    +0.000 HD
ENDROOT
BRANCH   1  15
ATOM     15  S   UNL     1     -55.228 -43.187 -77.544  0.00  0.00    +0.000 S 
ATOM     16  O   UNL     1     -56.151 -44.136 -76.828  0.00  0.00    +0.000 OA
BRANCH  15  17
ATOM     17  C   UNL     1     -54.964 -41.726 -76.483  0.00  0.00    +0.000 C 
BRANCH  17  21
ATOM     18  C   UNL     1     -49.905 -40.802 -75.883  0.00  0.00    +0.000 C 
ATOM     19  C   UNL     1     -51.358 -40.883 -76.151  0.00  0.00    +0.000 A 
ATOM     20  C   UNL     1     -52.326 -41.848 -75.990  0.00  0.00    +0.000 A 
ATOM     21  C   UNL     1     -53.536 -41.237 -76.431  0.00  0.00    +0.000 A 
ATOM     22  N   UNL     1     -53.286 -39.984 -76.850  0.00  0.00    +0.000 NA
ATOM     23  O   UNL     1     -51.933 -39.768 -76.671  0.00  0.00    +0.000 OA
ENDBRANCH  17  21
ENDBRANCH  15  17
ENDBRANCH   1  15
BRANCH  13  24
ATOM     24  C   UNL     1     -54.481 -42.600 -80.810  0.00  0.00    +0.000 C 
ATOM     25  O   UNL     1     -54.276 -43.668 -81.387  0.00  0.00    +0.000 OA
BRANCH  24  26
ATOM     26  C   UNL     1     -53.341 -41.590 -80.674  0.00  0.00    +0.000 C 
ATOM     27  C   UNL     1     -53.850 -40.219 -80.236  0.00  0.00    +0.000 C 
ATOM     28  C   UNL     1     -52.251 -42.082 -79.719  0.00  0.00    +0.000 C 
ENDBRANCH  24  26
ENDBRANCH  13  24
TORSDOF 5
ENDMDL
MODEL 16
REMARK VINA RESULT:    -5.355      3.691      6.575
REMARK INTER + INTRA:          -7.974
REMARK INTER:                  -7.257
REMARK INTRA:                  -0.717
REMARK UNBOUND:                -1.054
REMARK  Name = 
REMARK  8 active torsions:
REMARK  status: ('A' for Active; 'I' for Inactive)
REMARK    1  A    between atoms: C_1  and  C_2
REMARK    2  A    between atoms: C_4  and  C_5
REMARK    3  A    between atoms: C_5  and  S_6
REMARK    4  A    between atoms: S_6  and  C_8
REMARK    5  A    between atoms: C_20  and  C_21
REMARK    6  A    between atoms: C_21  and  C_23
REMARK    7  A    between atoms: C_23  and  C_24
REMARK    8  A    between atoms: C_23  and  C_25
REMARK                            x       y       z     vdW  Elec       q    Type
REMARK                         _______ _______ _______ _____ _____    ______ ____
ROOT
ATOM      1  C   UNL     1     -56.856 -42.727 -78.241  0.00  0.00    +0.000 A 
ATOM      2  N   UNL     1     -57.561 -42.595 -79.434  0.00  0.00    +0.000 N 
ATOM      3  C   UNL     1     -58.831 -43.178 -79.610  0.00  0.00    +0.000 A 
ATOM      4  C   UNL     1     -59.728 -42.734 -80.600  0.00  0.00    +0.000 A 
ATOM      5 BR   UNL     1     -59.340 -41.206 -81.654  0.00  0.00    +0.000 Br
ATOM      6  C   UNL     1     -60.950 -43.381 -80.804  0.00  0.00    +0.000 A 
ATOM      7  C   UNL     1     -61.295 -44.478 -80.020  0.00  0.00    +0.000 A 
ATOM      8  C   UNL     1     -60.416 -44.933 -79.021  0.00  0.00    +0.000 A 
ATOM      9 CL   UNL     1     -60.983 -46.255 -78.065  0.00  0.00    +0.000 Cl
ATOM     10  C   UNL     1     -59.180 -44.285 -78.819  0.00  0.00    +0.000 A 
ATOM     11  C   UNL     1     -58.170 -44.707 -77.814  0.00  0.00    +0.000 A 
ATOM     12  O   UNL     1     -58.153 -45.865 -77.409  0.00  0.00    +0.000 OA
ATOM     13  C   UNL     1     -57.155 -43.678 -77.325  0.00  0.00    +0.000 A 
ATOM     14  H   UNL     1     -57.406 -41.697 -79.913  0.00  0.00    +0.000 HD
ENDROOT
BRANCH   1  15
ATOM     15  S   UNL     1     -55.671 -41.349 -78.005  0.00  0.00    +0.000 S 
ATOM     16  O   UNL     1     -55.531 -40.756 -79.381  0.00  0.00    +0.000 OA
BRANCH  15  17
ATOM     17  C   UNL     1     -54.115 -42.203 -77.582  0.00  0.00    +0.000 C 
BRANCH  17  21
ATOM     18  C   UNL     1     -49.971 -39.842 -75.568  0.00  0.00    +0.000 C 
ATOM     19  C   UNL     1     -51.222 -40.327 -76.191  0.00  0.00    +0.000 A 
ATOM     20  C   UNL     1     -51.737 -41.563 -76.510  0.00  0.00    +0.000 A 
ATOM     21  C   UNL     1     -53.021 -41.297 -77.068  0.00  0.00    +0.000 A 
ATOM     22  N   UNL     1     -53.240 -39.971 -77.095  0.00  0.00    +0.000 NA
ATOM     23  O   UNL     1     -52.122 -39.373 -76.546  0.00  0.00    +0.000 OA
ENDBRANCH  17  21
ENDBRANCH  15  17
ENDBRANCH   1  15
BRANCH  13  24
ATOM     24  C   UNL     1     -56.661 -43.834 -75.903  0.00  0.00    +0.000 C 
ATOM     25  O   UNL     1     -55.775 -44.646 -75.641  0.00  0.00    +0.000 OA
BRANCH  24  26
ATOM     26  C   UNL     1     -57.304 -43.033 -74.771  0.00  0.00    +0.000 C 
ATOM     27  C   UNL     1     -56.338 -42.007 -74.183  0.00  0.00    +0.000 C 
ATOM     28  C   UNL     1     -58.599 -42.348 -75.217  0.00  0.00    +0.000 C 
ENDBRANCH  24  26
ENDBRANCH  13  24
TORSDOF 5
ENDMDL
MODEL 17
REMARK VINA RESULT:    -5.322     12.925     15.369
REMARK INTER + INTRA:          -7.931
REMARK INTER:                  -6.961
REMARK INTRA:                  -0.970
REMARK UNBOUND:                -1.054
REMARK  Name = 
REMARK  8 active torsions:
REMARK  status: ('A' for Active; 'I' for Inactive)
REMARK    1  A    between atoms: C_1  and  C_2
REMARK    2  A    between atoms: C_4  and  C_5
REMARK    3  A    between atoms: C_5  and  S_6
REMARK    4  A    between atoms: S_6  and  C_8
REMARK    5  A    between atoms: C_20  and  C_21
REMARK    6  A    between atoms: C_21  and  C_23
REMARK    7  A    between atoms: C_23  and  C_24
REMARK    8  A    between atoms: C_23  and  C_25
REMARK                            x       y       z     vdW  Elec       q    Type
REMARK                         _______ _______ _______ _____ _____    ______ ____
ROOT
ATOM      1  C   UNL     1     -56.204 -38.509 -62.874  0.00  0.00    +0.000 A 
ATOM      2  N   UNL     1     -56.693 -37.209 -62.962  0.00  0.00    +0.000 N 
ATOM      3  C   UNL     1     -57.898 -36.830 -62.338  0.00  0.00    +0.000 A 
ATOM      4  C   UNL     1     -58.203 -35.486 -62.052  0.00  0.00    +0.000 A 
ATOM      5 BR   UNL     1     -56.928 -34.113 -62.345  0.00  0.00    +0.000 Br
ATOM      6  C   UNL     1     -59.439 -35.130 -61.504  0.00  0.00    +0.000 A 
ATOM      7  C   UNL     1     -60.386 -36.113 -61.229  0.00  0.00    +0.000 A 
ATOM      8  C   UNL     1     -60.098 -37.463 -61.501  0.00  0.00    +0.000 A 
ATOM      9 CL   UNL     1     -61.320 -38.597 -61.052  0.00  0.00    +0.000 Cl
ATOM     10  C   UNL     1     -58.854 -37.821 -62.060  0.00  0.00    +0.000 A 
ATOM     11  C   UNL     1     -58.467 -39.211 -62.413  0.00  0.00    +0.000 A 
ATOM     12  O   UNL     1     -59.332 -40.052 -62.641  0.00  0.00    +0.000 OA
ATOM     13  C   UNL     1     -56.983 -39.554 -62.506  0.00  0.00    +0.000 A 
ATOM     14  H   UNL     1     -55.959 -36.489 -63.002  0.00  0.00    +0.000 HD
ENDROOT
BRANCH   1  15
ATOM     15  S   UNL     1     -54.386 -38.558 -63.100  0.00  0.00    +0.000 S 
ATOM     16  O   UNL     1     -54.007 -37.114 -63.287  0.00  0.00    +0.000 OA
BRANCH  15  17
ATOM     17  C   UNL     1     -54.185 -39.419 -64.697  0.00  0.00    +0.000 C 
BRANCH  17  21
ATOM     18  C   UNL     1     -50.469 -43.006 -64.342  0.00  0.00    +0.000 C 
ATOM     19  C   UNL     1     -51.411 -41.892 -64.588  0.00  0.00    +0.000 A 
ATOM     20  C   UNL     1     -52.686 -41.585 -64.170  0.00  0.00    +0.000 A 
ATOM     21  C   UNL     1     -52.981 -40.328 -64.774  0.00  0.00    +0.000 A 
ATOM     22  N   UNL     1     -51.940 -39.929 -65.525  0.00  0.00    +0.000 NA
ATOM     23  O   UNL     1     -50.967 -40.902 -65.403  0.00  0.00    +0.000 OA
ENDBRANCH  17  21
ENDBRANCH  15  17
ENDBRANCH   1  15
BRANCH  13  24
ATOM     24  C   UNL     1     -56.588 -40.968 -62.144  0.00  0.00    +0.000 C 
ATOM     25  O   UNL     1     -56.259 -41.763 -63.023  0.00  0.00    +0.000 OA
BRANCH  24  26
ATOM     26  C   UNL     1     -56.657 -41.442 -60.691  0.00  0.00    +0.000 C 
ATOM     27  C   UNL     1     -55.827 -42.703 -60.467  0.00  0.00    +0.000 C 
ATOM     28  C   UNL     1     -56.232 -40.346 -59.711  0.00  0.00    +0.000 C 
ENDBRANCH  24  26
ENDBRANCH  13  24
TORSDOF 5
ENDMDL
MODEL 18
REMARK VINA RESULT:    -5.208     10.730     14.004
REMARK INTER + INTRA:          -7.784
REMARK INTER:                  -6.629
REMARK INTRA:                  -1.154
REMARK UNBOUND:                -1.054
REMARK  Name = 
REMARK  8 active torsions:
REMARK  status: ('A' for Active; 'I' for Inactive)
REMARK    1  A    between atoms: C_1  and  C_2
REMARK    2  A    between atoms: C_4  and  C_5
REMARK    3  A    between atoms: C_5  and  S_6
REMARK    4  A    between atoms: S_6  and  C_8
REMARK    5  A    between atoms: C_20  and  C_21
REMARK    6  A    between atoms: C_21  and  C_23
REMARK    7  A    between atoms: C_23  and  C_24
REMARK    8  A    between atoms: C_23  and  C_25
REMARK                            x       y       z     vdW  Elec       q    Type
REMARK                         _______ _______ _______ _____ _____    ______ ____
ROOT
ATOM      1  C   UNL     1     -65.910 -42.555 -69.590  0.00  0.00    +0.000 A 
ATOM      2  N   UNL     1     -66.896 -42.138 -68.701  0.00  0.00    +0.000 N 
ATOM      3  C   UNL     1     -66.618 -41.225 -67.664  0.00  0.00    +0.000 A 
ATOM      4  C   UNL     1     -67.630 -40.479 -67.032  0.00  0.00    +0.000 A 
ATOM      5 BR   UNL     1     -69.420 -40.540 -67.655  0.00  0.00    +0.000 Br
ATOM      6  C   UNL     1     -67.337 -39.639 -65.954  0.00  0.00    +0.000 A 
ATOM      7  C   UNL     1     -66.027 -39.529 -65.496  0.00  0.00    +0.000 A 
ATOM      8  C   UNL     1     -65.000 -40.260 -66.119  0.00  0.00    +0.000 A 
ATOM      9 CL   UNL     1     -63.407 -39.987 -65.509  0.00  0.00    +0.000 Cl
ATOM     10  C   UNL     1     -65.296 -41.113 -67.202  0.00  0.00    +0.000 A 
ATOM     11  C   UNL     1     -64.291 -41.951 -67.904  0.00  0.00    +0.000 A 
ATOM     12  O   UNL     1     -63.255 -42.278 -67.332  0.00  0.00    +0.000 OA
ATOM     13  C   UNL     1     -64.589 -42.406 -69.330  0.00  0.00    +0.000 A 
ATOM     14  H   UNL     1     -67.835 -42.075 -69.118  0.00  0.00    +0.000 HD
ENDROOT
BRANCH   1  15
ATOM     15  S   UNL     1     -66.630 -43.100 -71.184  0.00  0.00    +0.000 S 
ATOM     16  O   UNL     1     -66.324 -41.965 -72.124  0.00  0.00    +0.000 OA
BRANCH  15  17
ATOM     17  C   UNL     1     -68.425 -43.108 -70.853  0.00  0.00    +0.000 C 
BRANCH  17  21
ATOM     18  C   UNL     1     -70.846 -47.651 -70.306  0.00  0.00    +0.000 C 
ATOM     19  C   UNL     1     -70.054 -46.401 -70.287  0.00  0.00    +0.000 A 
ATOM     20  C   UNL     1     -69.880 -45.345 -71.152  0.00  0.00    +0.000 A 
ATOM     21  C   UNL     1     -68.989 -44.459 -70.481  0.00  0.00    +0.000 A 
ATOM     22  N   UNL     1     -68.641 -44.979 -69.291  0.00  0.00    +0.000 NA
ATOM     23  O   UNL     1     -69.307 -46.183 -69.174  0.00  0.00    +0.000 OA
ENDBRANCH  17  21
ENDBRANCH  15  17
ENDBRANCH   1  15
BRANCH  13  24
ATOM     24  C   UNL     1     -63.401 -42.587 -70.248  0.00  0.00    +0.000 C 
ATOM     25  O   UNL     1     -63.101 -43.707 -70.659  0.00  0.00    +0.000 OA
BRANCH  24  26
ATOM     26  C   UNL     1     -62.523 -41.391 -70.620  0.00  0.00    +0.000 C 
ATOM     27  C   UNL     1     -61.308 -41.815 -71.442  0.00  0.00    +0.000 C 
ATOM     28  C   UNL     1     -63.313 -40.309 -71.359  0.00  0.00    +0.000 C 
ENDBRANCH  24  26
ENDBRANCH  13  24
TORSDOF 5
ENDMDL
MODEL 19
REMARK VINA RESULT:    -5.088     10.478     13.449
REMARK INTER + INTRA:          -7.629
REMARK INTER:                  -6.268
REMARK INTRA:                  -1.361
REMARK UNBOUND:                -1.054
REMARK  Name = 
REMARK  8 active torsions:
REMARK  status: ('A' for Active; 'I' for Inactive)
REMARK    1  A    between atoms: C_1  and  C_2
REMARK    2  A    between atoms: C_4  and  C_5
REMARK    3  A    between atoms: C_5  and  S_6
REMARK    4  A    between atoms: S_6  and  C_8
REMARK    5  A    between atoms: C_20  and  C_21
REMARK    6  A    between atoms: C_21  and  C_23
REMARK    7  A    between atoms: C_23  and  C_24
REMARK    8  A    between atoms: C_23  and  C_25
REMARK                            x       y       z     vdW  Elec       q    Type
REMARK                         _______ _______ _______ _____ _____    ______ ____
ROOT
ATOM      1  C   UNL     1     -65.894 -41.713 -70.022  0.00  0.00    +0.000 A 
ATOM      2  N   UNL     1     -64.594 -41.700 -70.517  0.00  0.00    +0.000 N 
ATOM      3  C   UNL     1     -63.477 -41.738 -69.660  0.00  0.00    +0.000 A 
ATOM      4  C   UNL     1     -62.203 -42.140 -70.105  0.00  0.00    +0.000 A 
ATOM      5 BR   UNL     1     -61.952 -42.816 -71.859  0.00  0.00    +0.000 Br
ATOM      6  C   UNL     1     -61.096 -42.093 -69.253  0.00  0.00    +0.000 A 
ATOM      7  C   UNL     1     -61.246 -41.648 -67.943  0.00  0.00    +0.000 A 
ATOM      8  C   UNL     1     -62.511 -41.248 -67.476  0.00  0.00    +0.000 A 
ATOM      9 CL   UNL     1     -62.586 -40.784 -65.815  0.00  0.00    +0.000 Cl
ATOM     10  C   UNL     1     -63.627 -41.289 -68.337  0.00  0.00    +0.000 A 
ATOM     11  C   UNL     1     -64.996 -40.859 -67.951  0.00  0.00    +0.000 A 
ATOM     12  O   UNL     1     -65.153 -40.060 -67.033  0.00  0.00    +0.000 OA
ATOM     13  C   UNL     1     -66.182 -41.414 -68.733  0.00  0.00    +0.000 A 
ATOM     14  H   UNL     1     -64.486 -42.183 -71.420  0.00  0.00    +0.000 HD
ENDROOT
BRANCH   1  15
ATOM     15  S   UNL     1     -67.075 -42.382 -71.254  0.00  0.00    +0.000 S 
ATOM     16  O   UNL     1     -66.285 -43.444 -71.969  0.00  0.00    +0.000 OA
BRANCH  15  17
ATOM     17  C   UNL     1     -67.327 -40.981 -72.396  0.00  0.00    +0.000 C 
BRANCH  17  21
ATOM     18  C   UNL     1     -69.984 -37.134 -70.174  0.00  0.00    +0.000 C 
ATOM     19  C   UNL     1     -69.397 -38.269 -70.919  0.00  0.00    +0.000 A 
ATOM     20  C   UNL     1     -68.143 -38.830 -71.012  0.00  0.00    +0.000 A 
ATOM     21  C   UNL     1     -68.295 -39.933 -71.900  0.00  0.00    +0.000 A 
ATOM     22  N   UNL     1     -69.568 -40.003 -72.325  0.00  0.00    +0.000 NA
ATOM     23  O   UNL     1     -70.249 -38.970 -71.710  0.00  0.00    +0.000 OA
ENDBRANCH  17  21
ENDBRANCH  15  17
ENDBRANCH   1  15
BRANCH  13  24
ATOM     24  C   UNL     1     -67.477 -41.588 -67.971  0.00  0.00    +0.000 C 
ATOM     25  O   UNL     1     -67.692 -42.625 -67.345  0.00  0.00    +0.000 OA
BRANCH  24  26
ATOM     26  C   UNL     1     -68.557 -40.507 -68.025  0.00  0.00    +0.000 C 
ATOM     27  C   UNL     1     -69.895 -41.068 -68.501  0.00  0.00    +0.000 C 
ATOM     28  C   UNL     1     -68.727 -39.799 -66.679  0.00  0.00    +0.000 C 
ENDBRANCH  24  26
ENDBRANCH  13  24
TORSDOF 5
ENDMDL
MODEL 20
REMARK VINA RESULT:    -5.088     13.276     16.116
REMARK INTER + INTRA:          -7.628
REMARK INTER:                  -6.525
REMARK INTRA:                  -1.103
REMARK UNBOUND:                -1.054
REMARK  Name = 
REMARK  8 active torsions:
REMARK  status: ('A' for Active; 'I' for Inactive)
REMARK    1  A    between atoms: C_1  and  C_2
REMARK    2  A    between atoms: C_4  and  C_5
REMARK    3  A    between atoms: C_5  and  S_6
REMARK    4  A    between atoms: S_6  and  C_8
REMARK    5  A    between atoms: C_20  and  C_21
REMARK    6  A    between atoms: C_21  and  C_23
REMARK    7  A    between atoms: C_23  and  C_24
REMARK    8  A    between atoms: C_23  and  C_25
REMARK                            x       y       z     vdW  Elec       q    Type
REMARK                         _______ _______ _______ _____ _____    ______ ____
ROOT
ATOM      1  C   UNL     1     -57.440 -36.950 -62.088  0.00  0.00    +0.000 A 
ATOM      2  N   UNL     1     -56.269 -37.563 -62.524  0.00  0.00    +0.000 N 
ATOM      3  C   UNL     1     -56.293 -38.767 -63.254  0.00  0.00    +0.000 A 
ATOM      4  C   UNL     1     -55.208 -39.184 -64.049  0.00  0.00    +0.000 A 
ATOM      5 BR   UNL     1     -53.704 -38.058 -64.313  0.00  0.00    +0.000 Br
ATOM      6  C   UNL     1     -55.227 -40.420 -64.700  0.00  0.00    +0.000 A 
ATOM      7  C   UNL     1     -56.332 -41.256 -64.571  0.00  0.00    +0.000 A 
ATOM      8  C   UNL     1     -57.430 -40.856 -63.787  0.00  0.00    +0.000 A 
ATOM      9 CL   UNL     1     -58.770 -41.944 -63.760  0.00  0.00    +0.000 Cl
ATOM     10  C   UNL     1     -57.408 -39.612 -63.124  0.00  0.00    +0.000 A 
ATOM     11  C   UNL     1     -58.500 -39.113 -62.249  0.00  0.00    +0.000 A 
ATOM     12  O   UNL     1     -59.269 -39.905 -61.714  0.00  0.00    +0.000 OA
ATOM     13  C   UNL     1     -58.621 -37.609 -62.020  0.00  0.00    +0.000 A 
ATOM     14  H   UNL     1     -55.517 -36.903 -62.767  0.00  0.00    +0.000 HD
ENDROOT
BRANCH   1  15
ATOM     15  S   UNL     1     -57.206 -35.148 -61.850  0.00  0.00    +0.000 S 
ATOM     16  O   UNL     1     -56.548 -34.699 -63.126  0.00  0.00    +0.000 OA
BRANCH  15  17
ATOM     17  C   UNL     1     -55.977 -35.060 -60.504  0.00  0.00    +0.000 C 
BRANCH  17  21
ATOM     18  C   UNL     1     -51.450 -33.019 -61.970  0.00  0.00    +0.000 C 
ATOM     19  C   UNL     1     -52.652 -33.786 -61.577  0.00  0.00    +0.000 A 
ATOM     20  C   UNL     1     -53.891 -33.465 -61.069  0.00  0.00    +0.000 A 
ATOM     21  C   UNL     1     -54.578 -34.708 -60.953  0.00  0.00    +0.000 A 
ATOM     22  N   UNL     1     -53.776 -35.710 -61.352  0.00  0.00    +0.000 NA
ATOM     23  O   UNL     1     -52.583 -35.132 -61.741  0.00  0.00    +0.000 OA
ENDBRANCH  17  21
ENDBRANCH  15  17
ENDBRANCH   1  15
BRANCH  13  24
ATOM     24  C   UNL     1     -60.014 -37.067 -61.792  0.00  0.00    +0.000 C 
ATOM     25  O   UNL     1     -60.603 -36.474 -62.695  0.00  0.00    +0.000 OA
BRANCH  24  26
ATOM     26  C   UNL     1     -60.677 -37.191 -60.420  0.00  0.00    +0.000 C 
ATOM     27  C   UNL     1     -59.960 -36.350 -59.366  0.00  0.00    +0.000 C 
ATOM     28  C   UNL     1     -62.164 -36.828 -60.467  0.00  0.00    +0.000 C 
ENDBRANCH  24  26
ENDBRANCH  13  24
TORSDOF 5
ENDMDL
