REMARK VINA RESULT:    -6.996     12.358     14.217
REMARK INTER + INTRA:          -9.740
REMARK INTER:                  -8.108
REMARK INTRA:                  -1.632
REMARK UNBOUND:                -0.699
REMARK  Name = 
REMARK  8 active torsions:
REMARK  status: ('A' for Active; 'I' for Inactive)
REMARK    1  A    between atoms: C_1  and  C_2
REMARK    2  A    between atoms: C_4  and  C_5
REMARK    3  A    between atoms: C_5  and  S_6
REMARK    4  A    between atoms: S_6  and  C_8
REMARK    5  A    between atoms: C_20  and  C_21
REMARK    6  A    between atoms: C_21  and  C_23
REMARK    7  A    between atoms: C_23  and  C_24
REMARK    8  A    between atoms: C_23  and  C_25
REMARK                            x       y       z     vdW  Elec       q    Type
REMARK                         _______ _______ _______ _____ _____    ______ ____
ROOT
ATOM      1  C   UNL     1     -56.055 -42.001 -77.736  0.00  0.00    +0.000 A 
ATOM      2  N   UNL     1     -55.240 -40.902 -77.485  0.00  0.00    +0.000 N 
ATOM      3  C   UNL     1     -53.938 -41.050 -76.969  0.00  0.00    +0.000 A 
ATOM      4  C   UNL     1     -52.963 -40.043 -77.094  0.00  0.00    +0.000 A 
ATOM      5 BR   UNL     1     -53.299 -38.482 -78.117  0.00  0.00    +0.000 Br
ATOM      6  C   UNL     1     -51.703 -40.184 -76.504  0.00  0.00    +0.000 A 
ATOM      7  C   UNL     1     -51.399 -41.336 -75.784  0.00  0.00    +0.000 A 
ATOM      8  C   UNL     1     -52.357 -42.358 -75.653  0.00  0.00    +0.000 A 
ATOM      9 CL   UNL     1     -51.840 -43.767 -74.800  0.00  0.00    +0.000 Cl
ATOM     10  C   UNL     1     -53.630 -42.212 -76.242  0.00  0.00    +0.000 A 
ATOM     11  C   UNL     1     -54.719 -43.216 -76.134  0.00  0.00    +0.000 A 
ATOM     12  O   UNL     1     -54.734 -44.008 -75.197  0.00  0.00    +0.000 OA
ATOM     13  C   UNL     1     -55.816 -43.220 -77.195  0.00  0.00    +0.000 A 
ATOM     14  H   UNL     1     -55.379 -40.121 -78.142  0.00  0.00    +0.000 HD
ENDROOT
BRANCH   1  15
ATOM     15  S   UNL     1     -57.308 -41.630 -79.021  0.00  0.00    +0.000 S 
ATOM     16  O   UNL     1     -58.487 -42.478 -78.629  0.00  0.00    +0.000 OA
BRANCH  15  17
ATOM     17  C   UNL     1     -56.572 -42.328 -80.538  0.00  0.00    +0.000 C 
BRANCH  17  21
ATOM     18  C   UNL     1     -51.407 -42.488 -80.847  0.00  0.00    +0.000 C 
ATOM     19  C   UNL     1     -52.864 -42.238 -80.791  0.00  0.00    +0.000 A 
ATOM     20  C   UNL     1     -53.986 -43.032 -80.713  0.00  0.00    +0.000 A 
ATOM     21  C   UNL     1     -55.081 -42.121 -80.666  0.00  0.00    +0.000 A 
ATOM     22  N   UNL     1     -54.627 -40.858 -80.735  0.00  0.00    +0.000 NA
ATOM     23  O   UNL     1     -53.249 -40.936 -80.809  0.00  0.00    +0.000 OA
ENDBRANCH  17  21
ENDBRANCH  15  17
ENDBRANCH   1  15
BRANCH  13  24
ATOM     24  C   UNL     1     -56.443 -44.557 -77.520  0.00  0.00    +0.000 C 
ATOM     25  O   UNL     1     -57.477 -44.910 -76.953  0.00  0.00    +0.000 OA
BRANCH  24  26
ATOM     26  C   UNL     1     -55.764 -45.510 -78.504  0.00  0.00    +0.000 C 
ATOM     27  C   UNL     1     -55.112 -46.692 -77.790  0.00  0.00    +0.000 C 
ATOM     28  C   UNL     1     -56.734 -46.009 -79.579  0.00  0.00    +0.000 C 
ENDBRANCH  24  26
ENDBRANCH  13  24
TORSDOF 5
