MODEL 1
REMARK VINA RESULT:    -7.758      0.000      0.000
REMARK INTER + INTRA:         -10.808
REMARK INTER:                  -9.573
REMARK INTRA:                  -1.235
REMARK UNBOUND:                -1.235
REMARK  Name = 
REMARK  5 active torsions:
REMARK  status: ('A' for Active; 'I' for Inactive)
REMARK    1  A    between atoms: C_1  and  C_2
REMARK    2  A    between atoms: C_2  and  C_4
REMARK    3  A    between atoms: C_5  and  S_6
REMARK    4  A    between atoms: S_6  and  C_8
REMARK    5  A    between atoms: C_8  and  C_9
REMARK                            x       y       z     vdW  Elec       q    Type
REMARK                         _______ _______ _______ _____ _____    ______ ____
ROOT
ATOM      1  C   UNL     1     -55.509 -42.883 -62.765  0.00  0.00    +0.000 A 
ATOM      2  C   UNL     1     -55.275 -41.697 -63.375  0.00  0.00    +0.000 A 
ATOM      3  N   UNL     1     -54.079 -41.385 -63.995  0.00  0.00    +0.000 N 
ATOM      4  C   UNL     1     -52.950 -42.218 -63.947  0.00  0.00    +0.000 A 
ATOM      5  C   UNL     1     -51.754 -41.851 -64.588  0.00  0.00    +0.000 A 
ATOM      6 BR   UNL     1     -51.597 -40.178 -65.477  0.00  0.00    +0.000 Br
ATOM      7  C   UNL     1     -50.650 -42.699 -64.592  0.00  0.00    +0.000 A 
ATOM      8  C   UNL     1     -50.731 -43.934 -63.956  0.00  0.00    +0.000 A 
ATOM      9  C   UNL     1     -51.918 -44.335 -63.331  0.00  0.00    +0.000 A 
ATOM     10 CL   UNL     1     -51.861 -45.891 -62.578  0.00  0.00    +0.000 Cl
ATOM     11  C   UNL     1     -53.043 -43.485 -63.342  0.00  0.00    +0.000 A 
ATOM     12  C   UNL     1     -54.346 -43.842 -62.715  0.00  0.00    +0.000 A 
ATOM     13  O   UNL     1     -54.465 -44.906 -62.120  0.00  0.00    +0.000 OA
ATOM     14  H   UNL     1     -53.886 -40.386 -64.091  0.00  0.00    +0.000 HD
ENDROOT
BRANCH   1  16
ATOM     15  C   UNL     1     -57.806 -44.099 -62.906  0.00  0.00    +0.000 C 
ATOM     16  C   UNL     1     -56.812 -43.271 -62.122  0.00  0.00    +0.000 C 
ATOM     17  O   UNL     1     -57.107 -42.910 -60.983  0.00  0.00    +0.000 OA
ENDBRANCH   1  16
BRANCH   2  18
ATOM     18  S   UNL     1     -56.468 -40.320 -63.283  0.00  0.00    +0.000 S 
ATOM     19  O   UNL     1     -55.644 -39.192 -62.720  0.00  0.00    +0.000 OA
BRANCH  18  20
ATOM     20  C   UNL     1     -56.647 -39.970 -65.076  0.00  0.00    +0.000 C 
BRANCH  20  21
ATOM     21  C   UNL     1     -57.156 -41.157 -65.864  0.00  0.00    +0.000 A 
ATOM     22  C   UNL     1     -56.358 -41.777 -66.841  0.00  0.00    +0.000 A 
ATOM     23  C   UNL     1     -56.829 -42.883 -67.555  0.00  0.00    +0.000 A 
ATOM     24  C   UNL     1     -58.100 -43.391 -67.298  0.00  0.00    +0.000 A 
ATOM     25  C   UNL     1     -58.896 -42.797 -66.321  0.00  0.00    +0.000 A 
ATOM     26  C   UNL     1     -58.429 -41.689 -65.608  0.00  0.00    +0.000 A 
ENDBRANCH  20  21
ENDBRANCH  18  20
ENDBRANCH   2  18
TORSDOF 4
ENDMDL
MODEL 2
REMARK VINA RESULT:    -7.249     10.618     12.531
REMARK INTER + INTRA:         -10.180
REMARK INTER:                  -8.943
REMARK INTRA:                  -1.237
REMARK UNBOUND:                -1.235
REMARK  Name = 
REMARK  5 active torsions:
REMARK  status: ('A' for Active; 'I' for Inactive)
REMARK    1  A    between atoms: C_1  and  C_2
REMARK    2  A    between atoms: C_2  and  C_4
REMARK    3  A    between atoms: C_5  and  S_6
REMARK    4  A    between atoms: S_6  and  C_8
REMARK    5  A    between atoms: C_8  and  C_9
REMARK                            x       y       z     vdW  Elec       q    Type
REMARK                         _______ _______ _______ _____ _____    ______ ____
ROOT
ATOM      1  C   UNL     1     -55.436 -41.326 -77.132  0.00  0.00    +0.000 A 
ATOM      2  C   UNL     1     -55.299 -42.533 -76.533  0.00  0.00    +0.000 A 
ATOM      3  N   UNL     1     -54.142 -42.933 -75.889  0.00  0.00    +0.000 N 
ATOM      4  C   UNL     1     -52.958 -42.179 -75.901  0.00  0.00    +0.000 A 
ATOM      5  C   UNL     1     -51.805 -42.636 -75.238  0.00  0.00    +0.000 A 
ATOM      6 BR   UNL     1     -51.784 -44.325 -74.367  0.00  0.00    +0.000 Br
ATOM      7  C   UNL     1     -50.646 -41.867 -75.198  0.00  0.00    +0.000 A 
ATOM      8  C   UNL     1     -50.627 -40.621 -75.819  0.00  0.00    +0.000 A 
ATOM      9  C   UNL     1     -51.768 -40.133 -76.466  0.00  0.00    +0.000 A 
ATOM     10 CL   UNL     1     -51.586 -38.576 -77.197  0.00  0.00    +0.000 Cl
ATOM     11  C   UNL     1     -52.949 -40.903 -76.491  0.00  0.00    +0.000 A 
ATOM     12  C   UNL     1     -54.209 -40.449 -77.144  0.00  0.00    +0.000 A 
ATOM     13  O   UNL     1     -54.241 -39.373 -77.727  0.00  0.00    +0.000 OA
ATOM     14  H   UNL     1     -54.020 -43.944 -75.802  0.00  0.00    +0.000 HD
ENDROOT
BRANCH   1  16
ATOM     15  C   UNL     1     -57.673 -40.001 -77.010  0.00  0.00    +0.000 C 
ATOM     16  C   UNL     1     -56.694 -40.842 -77.800  0.00  0.00    +0.000 C 
ATOM     17  O   UNL     1     -56.965 -41.133 -78.964  0.00  0.00    +0.000 OA
ENDBRANCH   1  16
BRANCH   2  18
ATOM     18  S   UNL     1     -56.581 -43.822 -76.669  0.00  0.00    +0.000 S 
ATOM     19  O   UNL     1     -55.821 -45.003 -77.213  0.00  0.00    +0.000 OA
BRANCH  18  20
ATOM     20  C   UNL     1     -56.840 -44.166 -74.885  0.00  0.00    +0.000 C 
BRANCH  20  21
ATOM     21  C   UNL     1     -57.266 -42.943 -74.101  0.00  0.00    +0.000 A 
ATOM     22  C   UNL     1     -56.423 -42.370 -73.134  0.00  0.00    +0.000 A 
ATOM     23  C   UNL     1     -56.818 -41.231 -72.424  0.00  0.00    +0.000 A 
ATOM     24  C   UNL     1     -58.055 -40.644 -72.677  0.00  0.00    +0.000 A 
ATOM     25  C   UNL     1     -58.894 -41.192 -73.644  0.00  0.00    +0.000 A 
ATOM     26  C   UNL     1     -58.504 -42.332 -74.352  0.00  0.00    +0.000 A 
ENDBRANCH  20  21
ENDBRANCH  18  20
ENDBRANCH   2  18
TORSDOF 4
ENDMDL
MODEL 3
REMARK VINA RESULT:    -6.873      2.511      3.948
REMARK INTER + INTRA:          -9.715
REMARK INTER:                  -8.825
REMARK INTRA:                  -0.890
REMARK UNBOUND:                -1.235
REMARK  Name = 
REMARK  5 active torsions:
REMARK  status: ('A' for Active; 'I' for Inactive)
REMARK    1  A    between atoms: C_1  and  C_2
REMARK    2  A    between atoms: C_2  and  C_4
REMARK    3  A    between atoms: C_5  and  S_6
REMARK    4  A    between atoms: S_6  and  C_8
REMARK    5  A    between atoms: C_8  and  C_9
REMARK                            x       y       z     vdW  Elec       q    Type
REMARK                         _______ _______ _______ _____ _____    ______ ____
ROOT
ATOM      1  C   UNL     1     -56.021 -42.350 -62.739  0.00  0.00    +0.000 A 
ATOM      2  C   UNL     1     -55.683 -41.189 -63.349  0.00  0.00    +0.000 A 
ATOM      3  N   UNL     1     -54.454 -40.977 -63.948  0.00  0.00    +0.000 N 
ATOM      4  C   UNL     1     -53.397 -41.897 -63.875  0.00  0.00    +0.000 A 
ATOM      5  C   UNL     1     -52.163 -41.629 -64.496  0.00  0.00    +0.000 A 
ATOM      6 BR   UNL     1     -51.857 -39.980 -65.389  0.00  0.00    +0.000 Br
ATOM      7  C   UNL     1     -51.130 -42.562 -64.476  0.00  0.00    +0.000 A 
ATOM      8  C   UNL     1     -51.321 -43.784 -63.836  0.00  0.00    +0.000 A 
ATOM      9  C   UNL     1     -52.547 -44.085 -63.232  0.00  0.00    +0.000 A 
ATOM     10 CL   UNL     1     -52.628 -45.637 -62.471  0.00  0.00    +0.000 Cl
ATOM     11  C   UNL     1     -53.601 -43.149 -63.268  0.00  0.00    +0.000 A 
ATOM     12  C   UNL     1     -54.939 -43.398 -62.663  0.00  0.00    +0.000 A 
ATOM     13  O   UNL     1     -55.154 -44.446 -62.066  0.00  0.00    +0.000 OA
ATOM     14  H   UNL     1     -54.180 -39.997 -64.044  0.00  0.00    +0.000 HD
ENDROOT
BRANCH   1  16
ATOM     15  C   UNL     1     -58.467 -43.208 -62.976  0.00  0.00    +0.000 C 
ATOM     16  C   UNL     1     -57.363 -42.630 -62.119  0.00  0.00    +0.000 C 
ATOM     17  O   UNL     1     -57.598 -42.375 -60.938  0.00  0.00    +0.000 OA
ENDBRANCH   1  16
BRANCH   2  18
ATOM     18  S   UNL     1     -56.764 -39.722 -63.286  0.00  0.00    +0.000 S 
ATOM     19  O   UNL     1     -56.603 -39.241 -61.867  0.00  0.00    +0.000 OA
BRANCH  18  20
ATOM     20  C   UNL     1     -55.768 -38.581 -64.323  0.00  0.00    +0.000 C 
BRANCH  20  21
ATOM     21  C   UNL     1     -55.373 -37.313 -63.598  0.00  0.00    +0.000 A 
ATOM     22  C   UNL     1     -54.101 -37.173 -63.017  0.00  0.00    +0.000 A 
ATOM     23  C   UNL     1     -53.739 -35.992 -62.362  0.00  0.00    +0.000 A 
ATOM     24  C   UNL     1     -54.637 -34.931 -62.286  0.00  0.00    +0.000 A 
ATOM     25  C   UNL     1     -55.896 -35.049 -62.871  0.00  0.00    +0.000 A 
ATOM     26  C   UNL     1     -56.262 -36.230 -63.523  0.00  0.00    +0.000 A 
ENDBRANCH  20  21
ENDBRANCH  18  20
ENDBRANCH   2  18
TORSDOF 4
ENDMDL
MODEL 4
REMARK VINA RESULT:    -6.866      3.564      5.719
REMARK INTER + INTRA:          -9.706
REMARK INTER:                  -8.856
REMARK INTRA:                  -0.850
REMARK UNBOUND:                -1.235
REMARK  Name = 
REMARK  5 active torsions:
REMARK  status: ('A' for Active; 'I' for Inactive)
REMARK    1  A    between atoms: C_1  and  C_2
REMARK    2  A    between atoms: C_2  and  C_4
REMARK    3  A    between atoms: C_5  and  S_6
REMARK    4  A    between atoms: S_6  and  C_8
REMARK    5  A    between atoms: C_8  and  C_9
REMARK                            x       y       z     vdW  Elec       q    Type
REMARK                         _______ _______ _______ _____ _____    ______ ____
ROOT
ATOM      1  C   UNL     1     -56.818 -40.866 -61.882  0.00  0.00    +0.000 A 
ATOM      2  C   UNL     1     -55.835 -41.586 -62.474  0.00  0.00    +0.000 A 
ATOM      3  N   UNL     1     -54.834 -41.016 -63.240  0.00  0.00    +0.000 N 
ATOM      4  C   UNL     1     -54.810 -39.654 -63.580  0.00  0.00    +0.000 A 
ATOM      5  C   UNL     1     -53.773 -39.126 -64.369  0.00  0.00    +0.000 A 
ATOM      6 BR   UNL     1     -52.409 -40.249 -65.070  0.00  0.00    +0.000 Br
ATOM      7  C   UNL     1     -53.713 -37.766 -64.662  0.00  0.00    +0.000 A 
ATOM      8  C   UNL     1     -54.691 -36.912 -64.160  0.00  0.00    +0.000 A 
ATOM      9  C   UNL     1     -55.720 -37.408 -63.352  0.00  0.00    +0.000 A 
ATOM     10 CL   UNL     1     -56.864 -36.227 -62.813  0.00  0.00    +0.000 Cl
ATOM     11  C   UNL     1     -55.772 -38.783 -63.039  0.00  0.00    +0.000 A 
ATOM     12  C   UNL     1     -56.824 -39.387 -62.175  0.00  0.00    +0.000 A 
ATOM     13  O   UNL     1     -57.723 -38.686 -61.728  0.00  0.00    +0.000 OA
ATOM     14  H   UNL     1     -54.387 -41.645 -63.909  0.00  0.00    +0.000 HD
ENDROOT
BRANCH   1  16
ATOM     15  C   UNL     1     -57.607 -41.677 -59.538  0.00  0.00    +0.000 C 
ATOM     16  C   UNL     1     -57.893 -41.449 -61.006  0.00  0.00    +0.000 C 
ATOM     17  O   UNL     1     -58.992 -41.772 -61.455  0.00  0.00    +0.000 OA
ENDBRANCH   1  16
BRANCH   2  18
ATOM     18  S   UNL     1     -55.838 -43.409 -62.458  0.00  0.00    +0.000 S 
ATOM     19  O   UNL     1     -55.526 -43.763 -63.889  0.00  0.00    +0.000 OA
BRANCH  18  20
ATOM     20  C   UNL     1     -54.289 -43.695 -61.516  0.00  0.00    +0.000 C 
BRANCH  20  21
ATOM     21  C   UNL     1     -53.193 -44.319 -62.352  0.00  0.00    +0.000 A 
ATOM     22  C   UNL     1     -52.293 -43.524 -63.082  0.00  0.00    +0.000 A 
ATOM     23  C   UNL     1     -51.274 -44.108 -63.841  0.00  0.00    +0.000 A 
ATOM     24  C   UNL     1     -51.133 -45.492 -63.874  0.00  0.00    +0.000 A 
ATOM     25  C   UNL     1     -52.008 -46.294 -63.143  0.00  0.00    +0.000 A 
ATOM     26  C   UNL     1     -53.030 -45.713 -62.387  0.00  0.00    +0.000 A 
ENDBRANCH  20  21
ENDBRANCH  18  20
ENDBRANCH   2  18
TORSDOF 4
ENDMDL
MODEL 5
REMARK VINA RESULT:    -6.753     12.695     14.827
REMARK INTER + INTRA:          -9.567
REMARK INTER:                  -8.797
REMARK INTRA:                  -0.770
REMARK UNBOUND:                -1.235
REMARK  Name = 
REMARK  5 active torsions:
REMARK  status: ('A' for Active; 'I' for Inactive)
REMARK    1  A    between atoms: C_1  and  C_2
REMARK    2  A    between atoms: C_2  and  C_4
REMARK    3  A    between atoms: C_5  and  S_6
REMARK    4  A    between atoms: S_6  and  C_8
REMARK    5  A    between atoms: C_8  and  C_9
REMARK                            x       y       z     vdW  Elec       q    Type
REMARK                         _______ _______ _______ _____ _____    ______ ____
ROOT
ATOM      1  C   UNL     1     -53.416 -41.429 -78.053  0.00  0.00    +0.000 A 
ATOM      2  C   UNL     1     -54.729 -41.203 -78.294  0.00  0.00    +0.000 A 
ATOM      3  N   UNL     1     -55.318 -41.401 -79.530  0.00  0.00    +0.000 N 
ATOM      4  C   UNL     1     -54.589 -41.736 -80.681  0.00  0.00    +0.000 A 
ATOM      5  C   UNL     1     -55.236 -41.918 -81.917  0.00  0.00    +0.000 A 
ATOM      6 BR   UNL     1     -57.109 -41.641 -82.089  0.00  0.00    +0.000 Br
ATOM      7  C   UNL     1     -54.527 -42.307 -83.050  0.00  0.00    +0.000 A 
ATOM      8  C   UNL     1     -53.155 -42.526 -82.960  0.00  0.00    +0.000 A 
ATOM      9  C   UNL     1     -52.491 -42.375 -81.737  0.00  0.00    +0.000 A 
ATOM     10 CL   UNL     1     -50.788 -42.673 -81.786  0.00  0.00    +0.000 Cl
ATOM     11  C   UNL     1     -53.211 -41.999 -80.584  0.00  0.00    +0.000 A 
ATOM     12  C   UNL     1     -52.583 -41.833 -79.243  0.00  0.00    +0.000 A 
ATOM     13  O   UNL     1     -51.376 -41.989 -79.112  0.00  0.00    +0.000 OA
ATOM     14  H   UNL     1     -56.179 -40.874 -79.690  0.00  0.00    +0.000 HD
ENDROOT
BRANCH   1  16
ATOM     15  C   UNL     1     -52.757 -42.429 -75.741  0.00  0.00    +0.000 C 
ATOM     16  C   UNL     1     -52.754 -41.268 -76.711  0.00  0.00    +0.000 C 
ATOM     17  O   UNL     1     -52.232 -40.208 -76.368  0.00  0.00    +0.000 OA
ENDBRANCH   1  16
BRANCH   2  18
ATOM     18  S   UNL     1     -55.817 -40.444 -77.043  0.00  0.00    +0.000 S 
ATOM     19  O   UNL     1     -57.020 -40.025 -77.847  0.00  0.00    +0.000 OA
BRANCH  18  20
ATOM     20  C   UNL     1     -56.318 -41.958 -76.135  0.00  0.00    +0.000 C 
BRANCH  20  21
ATOM     21  C   UNL     1     -56.761 -41.679 -74.715  0.00  0.00    +0.000 A 
ATOM     22  C   UNL     1     -56.155 -42.326 -73.624  0.00  0.00    +0.000 A 
ATOM     23  C   UNL     1     -56.560 -42.052 -72.314  0.00  0.00    +0.000 A 
ATOM     24  C   UNL     1     -57.567 -41.121 -72.074  0.00  0.00    +0.000 A 
ATOM     25  C   UNL     1     -58.166 -40.460 -73.145  0.00  0.00    +0.000 A 
ATOM     26  C   UNL     1     -57.766 -40.735 -74.455  0.00  0.00    +0.000 A 
ENDBRANCH  20  21
ENDBRANCH  18  20
ENDBRANCH   2  18
TORSDOF 4
ENDMDL
MODEL 6
REMARK VINA RESULT:    -6.723     13.284     15.284
REMARK INTER + INTRA:          -9.530
REMARK INTER:                  -8.625
REMARK INTRA:                  -0.905
REMARK UNBOUND:                -1.235
REMARK  Name = 
REMARK  5 active torsions:
REMARK  status: ('A' for Active; 'I' for Inactive)
REMARK    1  A    between atoms: C_1  and  C_2
REMARK    2  A    between atoms: C_2  and  C_4
REMARK    3  A    between atoms: C_5  and  S_6
REMARK    4  A    between atoms: S_6  and  C_8
REMARK    5  A    between atoms: C_8  and  C_9
REMARK                            x       y       z     vdW  Elec       q    Type
REMARK                         _______ _______ _______ _____ _____    ______ ____
ROOT
ATOM      1  C   UNL     1     -53.717 -42.597 -80.011  0.00  0.00    +0.000 A 
ATOM      2  C   UNL     1     -53.791 -41.786 -78.930  0.00  0.00    +0.000 A 
ATOM      3  N   UNL     1     -54.417 -42.148 -77.751  0.00  0.00    +0.000 N 
ATOM      4  C   UNL     1     -55.142 -43.341 -77.603  0.00  0.00    +0.000 A 
ATOM      5  C   UNL     1     -55.768 -43.658 -76.385  0.00  0.00    +0.000 A 
ATOM      6 BR   UNL     1     -55.722 -42.450 -74.919  0.00  0.00    +0.000 Br
ATOM      7  C   UNL     1     -56.440 -44.866 -76.214  0.00  0.00    +0.000 A 
ATOM      8  C   UNL     1     -56.489 -45.778 -77.264  0.00  0.00    +0.000 A 
ATOM      9  C   UNL     1     -55.854 -45.497 -78.479  0.00  0.00    +0.000 A 
ATOM     10 CL   UNL     1     -56.010 -46.724 -79.689  0.00  0.00    +0.000 Cl
ATOM     11  C   UNL     1     -55.157 -44.283 -78.647  0.00  0.00    +0.000 A 
ATOM     12  C   UNL     1     -54.442 -43.915 -79.902  0.00  0.00    +0.000 A 
ATOM     13  O   UNL     1     -54.474 -44.670 -80.865  0.00  0.00    +0.000 OA
ATOM     14  H   UNL     1     -54.725 -41.369 -77.165  0.00  0.00    +0.000 HD
ENDROOT
BRANCH   1  16
ATOM     15  C   UNL     1     -51.540 -42.601 -81.438  0.00  0.00    +0.000 C 
ATOM     16  C   UNL     1     -53.004 -42.253 -81.291  0.00  0.00    +0.000 C 
ATOM     17  O   UNL     1     -53.572 -41.670 -82.213  0.00  0.00    +0.000 OA
ENDBRANCH   1  16
BRANCH   2  18
ATOM     18  S   UNL     1     -53.216 -40.056 -78.988  0.00  0.00    +0.000 S 
ATOM     19  O   UNL     1     -54.369 -39.335 -79.635  0.00  0.00    +0.000 OA
BRANCH  18  20
ATOM     20  C   UNL     1     -53.310 -39.658 -77.199  0.00  0.00    +0.000 C 
BRANCH  20  21
ATOM     21  C   UNL     1     -51.958 -39.647 -76.521  0.00  0.00    +0.000 A 
ATOM     22  C   UNL     1     -51.332 -38.440 -76.165  0.00  0.00    +0.000 A 
ATOM     23  C   UNL     1     -50.089 -38.439 -75.525  0.00  0.00    +0.000 A 
ATOM     24  C   UNL     1     -49.457 -39.642 -75.224  0.00  0.00    +0.000 A 
ATOM     25  C   UNL     1     -50.072 -40.847 -75.556  0.00  0.00    +0.000 A 
ATOM     26  C   UNL     1     -51.313 -40.851 -76.199  0.00  0.00    +0.000 A 
ENDBRANCH  20  21
ENDBRANCH  18  20
ENDBRANCH   2  18
TORSDOF 4
ENDMDL
MODEL 7
REMARK VINA RESULT:    -6.704     12.943     14.959
REMARK INTER + INTRA:          -9.507
REMARK INTER:                  -8.678
REMARK INTRA:                  -0.829
REMARK UNBOUND:                -1.235
REMARK  Name = 
REMARK  5 active torsions:
REMARK  status: ('A' for Active; 'I' for Inactive)
REMARK    1  A    between atoms: C_1  and  C_2
REMARK    2  A    between atoms: C_2  and  C_4
REMARK    3  A    between atoms: C_5  and  S_6
REMARK    4  A    between atoms: S_6  and  C_8
REMARK    5  A    between atoms: C_8  and  C_9
REMARK                            x       y       z     vdW  Elec       q    Type
REMARK                         _______ _______ _______ _____ _____    ______ ____
ROOT
ATOM      1  C   UNL     1     -54.292 -42.761 -78.552  0.00  0.00    +0.000 A 
ATOM      2  C   UNL     1     -54.104 -43.248 -77.303  0.00  0.00    +0.000 A 
ATOM      3  N   UNL     1     -54.411 -44.547 -76.940  0.00  0.00    +0.000 N 
ATOM      4  C   UNL     1     -55.062 -45.448 -77.797  0.00  0.00    +0.000 A 
ATOM      5  C   UNL     1     -55.360 -46.756 -77.376  0.00  0.00    +0.000 A 
ATOM      6 BR   UNL     1     -54.963 -47.328 -75.607  0.00  0.00    +0.000 Br
ATOM      7  C   UNL     1     -55.953 -47.673 -78.240  0.00  0.00    +0.000 A 
ATOM      8  C   UNL     1     -56.251 -47.292 -79.546  0.00  0.00    +0.000 A 
ATOM      9  C   UNL     1     -55.943 -46.003 -79.997  0.00  0.00    +0.000 A 
ATOM     10 CL   UNL     1     -56.382 -45.677 -81.638  0.00  0.00    +0.000 Cl
ATOM     11  C   UNL     1     -55.325 -45.080 -79.128  0.00  0.00    +0.000 A 
ATOM     12  C   UNL     1     -54.951 -43.696 -79.535  0.00  0.00    +0.000 A 
ATOM     13  O   UNL     1     -55.213 -43.300 -80.664  0.00  0.00    +0.000 OA
ATOM     14  H   UNL     1     -54.573 -44.693 -75.942  0.00  0.00    +0.000 HD
ENDROOT
BRANCH   1  16
ATOM     15  C   UNL     1     -54.918 -40.246 -78.792  0.00  0.00    +0.000 C 
ATOM     16  C   UNL     1     -53.926 -41.370 -78.992  0.00  0.00    +0.000 C 
ATOM     17  O   UNL     1     -52.850 -41.123 -79.536  0.00  0.00    +0.000 OA
ENDBRANCH   1  16
BRANCH   2  18
ATOM     18  S   UNL     1     -53.583 -42.174 -75.924  0.00  0.00    +0.000 S 
ATOM     19  O   UNL     1     -53.772 -43.055 -74.716  0.00  0.00    +0.000 OA
BRANCH  18  20
ATOM     20  C   UNL     1     -51.777 -42.140 -76.247  0.00  0.00    +0.000 C 
BRANCH  20  21
ATOM     21  C   UNL     1     -51.151 -40.789 -75.979  0.00  0.00    +0.000 A 
ATOM     22  C   UNL     1     -49.900 -40.679 -75.348  0.00  0.00    +0.000 A 
ATOM     23  C   UNL     1     -49.322 -39.427 -75.117  0.00  0.00    +0.000 A 
ATOM     24  C   UNL     1     -49.979 -38.268 -75.521  0.00  0.00    +0.000 A 
ATOM     25  C   UNL     1     -51.212 -38.362 -76.163  0.00  0.00    +0.000 A 
ATOM     26  C   UNL     1     -51.794 -39.612 -76.392  0.00  0.00    +0.000 A 
ENDBRANCH  20  21
ENDBRANCH  18  20
ENDBRANCH   2  18
TORSDOF 4
ENDMDL
MODEL 8
REMARK VINA RESULT:    -6.690     12.328     14.122
REMARK INTER + INTRA:          -9.489
REMARK INTER:                  -8.824
REMARK INTRA:                  -0.666
REMARK UNBOUND:                -1.235
REMARK  Name = 
REMARK  5 active torsions:
REMARK  status: ('A' for Active; 'I' for Inactive)
REMARK    1  A    between atoms: C_1  and  C_2
REMARK    2  A    between atoms: C_2  and  C_4
REMARK    3  A    between atoms: C_5  and  S_6
REMARK    4  A    between atoms: S_6  and  C_8
REMARK    5  A    between atoms: C_8  and  C_9
REMARK                            x       y       z     vdW  Elec       q    Type
REMARK                         _______ _______ _______ _____ _____    ______ ____
ROOT
ATOM      1  C   UNL     1     -56.296 -42.649 -76.932  0.00  0.00    +0.000 A 
ATOM      2  C   UNL     1     -55.319 -43.414 -76.391  0.00  0.00    +0.000 A 
ATOM      3  N   UNL     1     -55.324 -44.797 -76.439  0.00  0.00    +0.000 N 
ATOM      4  C   UNL     1     -56.402 -45.542 -76.942  0.00  0.00    +0.000 A 
ATOM      5  C   UNL     1     -56.361 -46.948 -76.960  0.00  0.00    +0.000 A 
ATOM      6 BR   UNL     1     -54.880 -47.891 -76.232  0.00  0.00    +0.000 Br
ATOM      7  C   UNL     1     -57.401 -47.691 -77.511  0.00  0.00    +0.000 A 
ATOM      8  C   UNL     1     -58.499 -47.033 -78.059  0.00  0.00    +0.000 A 
ATOM      9  C   UNL     1     -58.554 -45.635 -78.076  0.00  0.00    +0.000 A 
ATOM     10 CL   UNL     1     -59.983 -44.966 -78.783  0.00  0.00    +0.000 Cl
ATOM     11  C   UNL     1     -57.492 -44.881 -77.535  0.00  0.00    +0.000 A 
ATOM     12  C   UNL     1     -57.466 -43.391 -77.528  0.00  0.00    +0.000 A 
ATOM     13  O   UNL     1     -58.417 -42.762 -77.975  0.00  0.00    +0.000 OA
ATOM     14  H   UNL     1     -54.768 -45.259 -75.717  0.00  0.00    +0.000 HD
ENDROOT
BRANCH   1  16
ATOM     15  C   UNL     1     -57.119 -40.401 -75.910  0.00  0.00    +0.000 C 
ATOM     16  C   UNL     1     -56.297 -41.144 -76.939  0.00  0.00    +0.000 C 
ATOM     17  O   UNL     1     -55.670 -40.499 -77.778  0.00  0.00    +0.000 OA
ENDBRANCH   1  16
BRANCH   2  18
ATOM     18  S   UNL     1     -53.978 -42.691 -75.388  0.00  0.00    +0.000 S 
ATOM     19  O   UNL     1     -53.379 -43.892 -74.704  0.00  0.00    +0.000 OA
BRANCH  18  20
ATOM     20  C   UNL     1     -52.815 -42.244 -76.735  0.00  0.00    +0.000 C 
BRANCH  20  21
ATOM     21  C   UNL     1     -51.796 -41.206 -76.319  0.00  0.00    +0.000 A 
ATOM     22  C   UNL     1     -52.005 -39.839 -76.571  0.00  0.00    +0.000 A 
ATOM     23  C   UNL     1     -51.065 -38.885 -76.170  0.00  0.00    +0.000 A 
ATOM     24  C   UNL     1     -49.909 -39.280 -75.502  0.00  0.00    +0.000 A 
ATOM     25  C   UNL     1     -49.696 -40.630 -75.230  0.00  0.00    +0.000 A 
ATOM     26  C   UNL     1     -50.632 -41.586 -75.634  0.00  0.00    +0.000 A 
ENDBRANCH  20  21
ENDBRANCH  18  20
ENDBRANCH   2  18
TORSDOF 4
ENDMDL
MODEL 9
REMARK VINA RESULT:    -6.652      3.391      6.391
REMARK INTER + INTRA:          -9.442
REMARK INTER:                  -8.735
REMARK INTRA:                  -0.707
REMARK UNBOUND:                -1.235
REMARK  Name = 
REMARK  5 active torsions:
REMARK  status: ('A' for Active; 'I' for Inactive)
REMARK    1  A    between atoms: C_1  and  C_2
REMARK    2  A    between atoms: C_2  and  C_4
REMARK    3  A    between atoms: C_5  and  S_6
REMARK    4  A    between atoms: S_6  and  C_8
REMARK    5  A    between atoms: C_8  and  C_9
REMARK                            x       y       z     vdW  Elec       q    Type
REMARK                         _______ _______ _______ _____ _____    ______ ____
ROOT
ATOM      1  C   UNL     1     -56.530 -41.871 -63.339  0.00  0.00    +0.000 A 
ATOM      2  C   UNL     1     -55.380 -42.447 -62.916  0.00  0.00    +0.000 A 
ATOM      3  N   UNL     1     -55.161 -42.827 -61.604  0.00  0.00    +0.000 N 
ATOM      4  C   UNL     1     -56.058 -42.542 -60.563  0.00  0.00    +0.000 A 
ATOM      5  C   UNL     1     -55.784 -42.945 -59.244  0.00  0.00    +0.000 A 
ATOM      6 BR   UNL     1     -54.153 -43.820 -58.809  0.00  0.00    +0.000 Br
ATOM      7  C   UNL     1     -56.695 -42.716 -58.217  0.00  0.00    +0.000 A 
ATOM      8  C   UNL     1     -57.903 -42.083 -58.500  0.00  0.00    +0.000 A 
ATOM      9  C   UNL     1     -58.211 -41.694 -59.808  0.00  0.00    +0.000 A 
ATOM     10 CL   UNL     1     -59.743 -40.913 -60.000  0.00  0.00    +0.000 Cl
ATOM     11  C   UNL     1     -57.296 -41.943 -60.853  0.00  0.00    +0.000 A 
ATOM     12  C   UNL     1     -57.555 -41.575 -62.273  0.00  0.00    +0.000 A 
ATOM     13  O   UNL     1     -58.590 -40.994 -62.574  0.00  0.00    +0.000 OA
ATOM     14  H   UNL     1     -54.179 -42.903 -61.332  0.00  0.00    +0.000 HD
ENDROOT
BRANCH   1  16
ATOM     15  C   UNL     1     -57.407 -42.518 -65.703  0.00  0.00    +0.000 C 
ATOM     16  C   UNL     1     -56.819 -41.487 -64.765  0.00  0.00    +0.000 C 
ATOM     17  O   UNL     1     -56.564 -40.365 -65.200  0.00  0.00    +0.000 OA
ENDBRANCH   1  16
BRANCH   2  18
ATOM     18  S   UNL     1     -53.933 -42.618 -64.012  0.00  0.00    +0.000 S 
ATOM     19  O   UNL     1     -53.383 -41.217 -64.072  0.00  0.00    +0.000 OA
BRANCH  18  20
ATOM     20  C   UNL     1     -52.823 -43.550 -62.886  0.00  0.00    +0.000 C 
BRANCH  20  21
ATOM     21  C   UNL     1     -51.644 -44.175 -63.598  0.00  0.00    +0.000 A 
ATOM     22  C   UNL     1     -50.627 -43.382 -64.156  0.00  0.00    +0.000 A 
ATOM     23  C   UNL     1     -49.533 -43.968 -64.800  0.00  0.00    +0.000 A 
ATOM     24  C   UNL     1     -49.434 -45.354 -64.888  0.00  0.00    +0.000 A 
ATOM     25  C   UNL     1     -50.427 -46.154 -64.326  0.00  0.00    +0.000 A 
ATOM     26  C   UNL     1     -51.523 -45.571 -63.685  0.00  0.00    +0.000 A 
ENDBRANCH  20  21
ENDBRANCH  18  20
ENDBRANCH   2  18
TORSDOF 4
ENDMDL
MODEL 10
REMARK VINA RESULT:    -6.633     12.032     14.404
REMARK INTER + INTRA:          -9.419
REMARK INTER:                  -8.532
REMARK INTRA:                  -0.887
REMARK UNBOUND:                -1.235
REMARK  Name = 
REMARK  5 active torsions:
REMARK  status: ('A' for Active; 'I' for Inactive)
REMARK    1  A    between atoms: C_1  and  C_2
REMARK    2  A    between atoms: C_2  and  C_4
REMARK    3  A    between atoms: C_5  and  S_6
REMARK    4  A    between atoms: S_6  and  C_8
REMARK    5  A    between atoms: C_8  and  C_9
REMARK                            x       y       z     vdW  Elec       q    Type
REMARK                         _______ _______ _______ _____ _____    ______ ____
ROOT
ATOM      1  C   UNL     1     -56.341 -42.209 -76.199  0.00  0.00    +0.000 A 
ATOM      2  C   UNL     1     -55.052 -42.161 -76.609  0.00  0.00    +0.000 A 
ATOM      3  N   UNL     1     -54.683 -41.949 -77.925  0.00  0.00    +0.000 N 
ATOM      4  C   UNL     1     -55.606 -41.885 -78.980  0.00  0.00    +0.000 A 
ATOM      5  C   UNL     1     -55.178 -41.676 -80.303  0.00  0.00    +0.000 A 
ATOM      6 BR   UNL     1     -53.328 -41.549 -80.722  0.00  0.00    +0.000 Br
ATOM      7  C   UNL     1     -56.093 -41.555 -81.346  0.00  0.00    +0.000 A 
ATOM      8  C   UNL     1     -57.456 -41.636 -81.075  0.00  0.00    +0.000 A 
ATOM      9  C   UNL     1     -57.910 -41.820 -79.764  0.00  0.00    +0.000 A 
ATOM     10 CL   UNL     1     -59.628 -41.909 -79.589  0.00  0.00    +0.000 Cl
ATOM     11  C   UNL     1     -56.985 -41.924 -78.704  0.00  0.00    +0.000 A 
ATOM     12  C   UNL     1     -57.386 -42.105 -77.281  0.00  0.00    +0.000 A 
ATOM     13  O   UNL     1     -58.571 -42.208 -76.990  0.00  0.00    +0.000 OA
ATOM     14  H   UNL     1     -53.750 -42.286 -78.175  0.00  0.00    +0.000 HD
ENDROOT
BRANCH   1  16
ATOM     15  C   UNL     1     -57.022 -41.172 -73.910  0.00  0.00    +0.000 C 
ATOM     16  C   UNL     1     -56.776 -42.391 -74.770  0.00  0.00    +0.000 C 
ATOM     17  O   UNL     1     -56.912 -43.508 -74.271  0.00  0.00    +0.000 OA
ENDBRANCH   1  16
BRANCH   2  18
ATOM     18  S   UNL     1     -53.671 -42.549 -75.483  0.00  0.00    +0.000 S 
ATOM     19  O   UNL     1     -53.743 -44.048 -75.359  0.00  0.00    +0.000 OA
BRANCH  18  20
ATOM     20  C   UNL     1     -52.267 -42.201 -76.612  0.00  0.00    +0.000 C 
BRANCH  20  21
ATOM     21  C   UNL     1     -51.507 -40.945 -76.244  0.00  0.00    +0.000 A 
ATOM     22  C   UNL     1     -52.014 -39.671 -76.553  0.00  0.00    +0.000 A 
ATOM     23  C   UNL     1     -51.313 -38.515 -76.196  0.00  0.00    +0.000 A 
ATOM     24  C   UNL     1     -50.101 -38.614 -75.519  0.00  0.00    +0.000 A 
ATOM     25  C   UNL     1     -49.593 -39.870 -75.192  0.00  0.00    +0.000 A 
ATOM     26  C   UNL     1     -50.290 -41.027 -75.550  0.00  0.00    +0.000 A 
ENDBRANCH  20  21
ENDBRANCH  18  20
ENDBRANCH   2  18
TORSDOF 4
ENDMDL
MODEL 11
REMARK VINA RESULT:    -6.586      3.487      6.355
REMARK INTER + INTRA:          -9.361
REMARK INTER:                  -8.529
REMARK INTRA:                  -0.832
REMARK UNBOUND:                -1.235
REMARK  Name = 
REMARK  5 active torsions:
REMARK  status: ('A' for Active; 'I' for Inactive)
REMARK    1  A    between atoms: C_1  and  C_2
REMARK    2  A    between atoms: C_2  and  C_4
REMARK    3  A    between atoms: C_5  and  S_6
REMARK    4  A    between atoms: S_6  and  C_8
REMARK    5  A    between atoms: C_8  and  C_9
REMARK                            x       y       z     vdW  Elec       q    Type
REMARK                         _______ _______ _______ _____ _____    ______ ____
ROOT
ATOM      1  C   UNL     1     -55.905 -41.161 -63.800  0.00  0.00    +0.000 A 
ATOM      2  C   UNL     1     -54.786 -40.414 -63.955  0.00  0.00    +0.000 A 
ATOM      3  N   UNL     1     -54.693 -39.095 -63.548  0.00  0.00    +0.000 N 
ATOM      4  C   UNL     1     -55.784 -38.367 -63.049  0.00  0.00    +0.000 A 
ATOM      5  C   UNL     1     -55.638 -37.025 -62.657  0.00  0.00    +0.000 A 
ATOM      6 BR   UNL     1     -53.977 -36.123 -62.860  0.00  0.00    +0.000 Br
ATOM      7  C   UNL     1     -56.703 -36.315 -62.107  0.00  0.00    +0.000 A 
ATOM      8  C   UNL     1     -57.932 -36.946 -61.937  0.00  0.00    +0.000 A 
ATOM      9  C   UNL     1     -58.098 -38.288 -62.297  0.00  0.00    +0.000 A 
ATOM     10 CL   UNL     1     -59.684 -38.927 -62.034  0.00  0.00    +0.000 Cl
ATOM     11  C   UNL     1     -57.015 -39.013 -62.836  0.00  0.00    +0.000 A 
ATOM     12  C   UNL     1     -57.105 -40.447 -63.229  0.00  0.00    +0.000 A 
ATOM     13  O   UNL     1     -58.169 -41.043 -63.124  0.00  0.00    +0.000 OA
ATOM     14  H   UNL     1     -53.975 -38.543 -64.022  0.00  0.00    +0.000 HD
ENDROOT
BRANCH   1  16
ATOM     15  C   UNL     1     -55.645 -43.677 -63.187  0.00  0.00    +0.000 C 
ATOM     16  C   UNL     1     -56.025 -42.609 -64.189  0.00  0.00    +0.000 C 
ATOM     17  O   UNL     1     -56.398 -42.952 -65.310  0.00  0.00    +0.000 OA
ENDBRANCH   1  16
BRANCH   2  18
ATOM     18  S   UNL     1     -53.341 -41.031 -64.880  0.00  0.00    +0.000 S 
ATOM     19  O   UNL     1     -52.645 -39.765 -65.309  0.00  0.00    +0.000 OA
BRANCH  18  20
ATOM     20  C   UNL     1     -52.360 -41.696 -63.478  0.00  0.00    +0.000 C 
BRANCH  20  21
ATOM     21  C   UNL     1     -51.517 -42.893 -63.860  0.00  0.00    +0.000 A 
ATOM     22  C   UNL     1     -51.901 -44.197 -63.502  0.00  0.00    +0.000 A 
ATOM     23  C   UNL     1     -51.124 -45.299 -63.871  0.00  0.00    +0.000 A 
ATOM     24  C   UNL     1     -49.959 -45.117 -64.610  0.00  0.00    +0.000 A 
ATOM     25  C   UNL     1     -49.573 -43.832 -64.986  0.00  0.00    +0.000 A 
ATOM     26  C   UNL     1     -50.346 -42.727 -64.615  0.00  0.00    +0.000 A 
ENDBRANCH  20  21
ENDBRANCH  18  20
ENDBRANCH   2  18
TORSDOF 4
ENDMDL
MODEL 12
REMARK VINA RESULT:    -6.564     13.582     15.828
REMARK INTER + INTRA:          -9.334
REMARK INTER:                  -8.479
REMARK INTRA:                  -0.855
REMARK UNBOUND:                -1.235
REMARK  Name = 
REMARK  5 active torsions:
REMARK  status: ('A' for Active; 'I' for Inactive)
REMARK    1  A    between atoms: C_1  and  C_2
REMARK    2  A    between atoms: C_2  and  C_4
REMARK    3  A    between atoms: C_5  and  S_6
REMARK    4  A    between atoms: S_6  and  C_8
REMARK    5  A    between atoms: C_8  and  C_9
REMARK                            x       y       z     vdW  Elec       q    Type
REMARK                         _______ _______ _______ _____ _____    ______ ____
ROOT
ATOM      1  C   UNL     1     -55.766 -41.783 -78.503  0.00  0.00    +0.000 A 
ATOM      2  C   UNL     1     -54.440 -41.981 -78.313  0.00  0.00    +0.000 A 
ATOM      3  N   UNL     1     -53.546 -42.171 -79.351  0.00  0.00    +0.000 N 
ATOM      4  C   UNL     1     -53.942 -42.300 -80.691  0.00  0.00    +0.000 A 
ATOM      5  C   UNL     1     -52.992 -42.500 -81.708  0.00  0.00    +0.000 A 
ATOM      6 BR   UNL     1     -51.145 -42.683 -81.298  0.00  0.00    +0.000 Br
ATOM      7  C   UNL     1     -53.374 -42.571 -83.046  0.00  0.00    +0.000 A 
ATOM      8  C   UNL     1     -54.717 -42.435 -83.383  0.00  0.00    +0.000 A 
ATOM      9  C   UNL     1     -55.680 -42.210 -82.393  0.00  0.00    +0.000 A 
ATOM     10 CL   UNL     1     -57.305 -42.071 -82.968  0.00  0.00    +0.000 Cl
ATOM     11  C   UNL     1     -55.292 -42.120 -81.040  0.00  0.00    +0.000 A 
ATOM     12  C   UNL     1     -56.252 -41.867 -79.928  0.00  0.00    +0.000 A 
ATOM     13  O   UNL     1     -57.448 -41.765 -80.166  0.00  0.00    +0.000 OA
ATOM     14  H   UNL     1     -52.683 -42.657 -79.097  0.00  0.00    +0.000 HD
ENDROOT
BRANCH   1  16
ATOM     15  C   UNL     1     -57.037 -40.103 -76.973  0.00  0.00    +0.000 C 
ATOM     16  C   UNL     1     -56.758 -41.527 -77.401  0.00  0.00    +0.000 C 
ATOM     17  O   UNL     1     -57.330 -42.446 -76.816  0.00  0.00    +0.000 OA
ENDBRANCH   1  16
BRANCH   2  18
ATOM     18  S   UNL     1     -53.730 -42.190 -76.646  0.00  0.00    +0.000 S 
ATOM     19  O   UNL     1     -53.924 -43.660 -76.375  0.00  0.00    +0.000 OA
BRANCH  18  20
ATOM     20  C   UNL     1     -51.954 -41.981 -77.057  0.00  0.00    +0.000 C 
BRANCH  20  21
ATOM     21  C   UNL     1     -51.368 -40.696 -76.517  0.00  0.00    +0.000 A 
ATOM     22  C   UNL     1     -52.022 -39.465 -76.698  0.00  0.00    +0.000 A 
ATOM     23  C   UNL     1     -51.481 -38.283 -76.183  0.00  0.00    +0.000 A 
ATOM     24  C   UNL     1     -50.284 -38.314 -75.471  0.00  0.00    +0.000 A 
ATOM     25  C   UNL     1     -49.632 -39.529 -75.270  0.00  0.00    +0.000 A 
ATOM     26  C   UNL     1     -50.169 -40.711 -75.787  0.00  0.00    +0.000 A 
ENDBRANCH  20  21
ENDBRANCH  18  20
ENDBRANCH   2  18
TORSDOF 4
ENDMDL
MODEL 13
REMARK VINA RESULT:    -6.465     13.481     15.777
REMARK INTER + INTRA:          -9.212
REMARK INTER:                  -8.510
REMARK INTRA:                  -0.702
REMARK UNBOUND:                -1.235
REMARK  Name = 
REMARK  5 active torsions:
REMARK  status: ('A' for Active; 'I' for Inactive)
REMARK    1  A    between atoms: C_1  and  C_2
REMARK    2  A    between atoms: C_2  and  C_4
REMARK    3  A    between atoms: C_5  and  S_6
REMARK    4  A    between atoms: S_6  and  C_8
REMARK    5  A    between atoms: C_8  and  C_9
REMARK                            x       y       z     vdW  Elec       q    Type
REMARK                         _______ _______ _______ _____ _____    ______ ____
ROOT
ATOM      1  C   UNL     1     -55.136 -41.262 -80.339  0.00  0.00    +0.000 A 
ATOM      2  C   UNL     1     -54.665 -41.085 -79.082  0.00  0.00    +0.000 A 
ATOM      3  N   UNL     1     -55.284 -41.607 -77.960  0.00  0.00    +0.000 N 
ATOM      4  C   UNL     1     -56.524 -42.264 -78.004  0.00  0.00    +0.000 A 
ATOM      5  C   UNL     1     -57.115 -42.769 -76.832  0.00  0.00    +0.000 A 
ATOM      6 BR   UNL     1     -56.296 -42.513 -75.137  0.00  0.00    +0.000 Br
ATOM      7  C   UNL     1     -58.316 -43.472 -76.877  0.00  0.00    +0.000 A 
ATOM      8  C   UNL     1     -58.941 -43.685 -78.103  0.00  0.00    +0.000 A 
ATOM      9  C   UNL     1     -58.362 -43.213 -79.287  0.00  0.00    +0.000 A 
ATOM     10 CL   UNL     1     -59.260 -43.548 -80.727  0.00  0.00    +0.000 Cl
ATOM     11  C   UNL     1     -57.135 -42.518 -79.245  0.00  0.00    +0.000 A 
ATOM     12  C   UNL     1     -56.446 -41.998 -80.459  0.00  0.00    +0.000 A 
ATOM     13  O   UNL     1     -56.964 -42.136 -81.560  0.00  0.00    +0.000 OA
ATOM     14  H   UNL     1     -55.070 -41.128 -77.083  0.00  0.00    +0.000 HD
ENDROOT
BRANCH   1  16
ATOM     15  C   UNL     1     -53.366 -41.570 -82.223  0.00  0.00    +0.000 C 
ATOM     16  C   UNL     1     -54.462 -40.749 -81.583  0.00  0.00    +0.000 C 
ATOM     17  O   UNL     1     -54.759 -39.663 -82.080  0.00  0.00    +0.000 OA
ENDBRANCH   1  16
BRANCH   2  18
ATOM     18  S   UNL     1     -53.253 -39.987 -78.731  0.00  0.00    +0.000 S 
ATOM     19  O   UNL     1     -53.816 -38.614 -78.992  0.00  0.00    +0.000 OA
BRANCH  18  20
ATOM     20  C   UNL     1     -53.188 -40.168 -76.906  0.00  0.00    +0.000 C 
BRANCH  20  21
ATOM     21  C   UNL     1     -51.830 -39.839 -76.325  0.00  0.00    +0.000 A 
ATOM     22  C   UNL     1     -50.935 -40.855 -75.947  0.00  0.00    +0.000 A 
ATOM     23  C   UNL     1     -49.676 -40.543 -75.425  0.00  0.00    +0.000 A 
ATOM     24  C   UNL     1     -49.289 -39.214 -75.282  0.00  0.00    +0.000 A 
ATOM     25  C   UNL     1     -50.158 -38.196 -75.667  0.00  0.00    +0.000 A 
ATOM     26  C   UNL     1     -51.419 -38.505 -76.186  0.00  0.00    +0.000 A 
ENDBRANCH  20  21
ENDBRANCH  18  20
ENDBRANCH   2  18
TORSDOF 4
ENDMDL
MODEL 14
REMARK VINA RESULT:    -6.402     12.311     14.344
REMARK INTER + INTRA:          -9.134
REMARK INTER:                  -8.025
REMARK INTRA:                  -1.109
REMARK UNBOUND:                -1.235
REMARK  Name = 
REMARK  5 active torsions:
REMARK  status: ('A' for Active; 'I' for Inactive)
REMARK    1  A    between atoms: C_1  and  C_2
REMARK    2  A    between atoms: C_2  and  C_4
REMARK    3  A    between atoms: C_5  and  S_6
REMARK    4  A    between atoms: S_6  and  C_8
REMARK    5  A    between atoms: C_8  and  C_9
REMARK                            x       y       z     vdW  Elec       q    Type
REMARK                         _______ _______ _______ _____ _____    ______ ____
ROOT
ATOM      1  C   UNL     1     -56.852 -42.450 -76.705  0.00  0.00    +0.000 A 
ATOM      2  C   UNL     1     -55.752 -43.205 -76.471  0.00  0.00    +0.000 A 
ATOM      3  N   UNL     1     -55.694 -44.562 -76.733  0.00  0.00    +0.000 N 
ATOM      4  C   UNL     1     -56.806 -45.311 -77.148  0.00  0.00    +0.000 A 
ATOM      5  C   UNL     1     -56.696 -46.691 -77.393  0.00  0.00    +0.000 A 
ATOM      6 BR   UNL     1     -55.059 -47.608 -77.094  0.00  0.00    +0.000 Br
ATOM      7  C   UNL     1     -57.781 -47.428 -77.861  0.00  0.00    +0.000 A 
ATOM      8  C   UNL     1     -58.994 -46.788 -78.097  0.00  0.00    +0.000 A 
ATOM      9  C   UNL     1     -59.124 -45.411 -77.885  0.00  0.00    +0.000 A 
ATOM     10 CL   UNL     1     -60.694 -44.763 -78.214  0.00  0.00    +0.000 Cl
ATOM     11  C   UNL     1     -58.021 -44.660 -77.429  0.00  0.00    +0.000 A 
ATOM     12  C   UNL     1     -58.072 -43.189 -77.194  0.00  0.00    +0.000 A 
ATOM     13  O   UNL     1     -59.121 -42.581 -77.362  0.00  0.00    +0.000 OA
ATOM     14  H   UNL     1     -54.989 -45.078 -76.202  0.00  0.00    +0.000 HD
ENDROOT
BRANCH   1  16
ATOM     15  C   UNL     1     -57.426 -40.448 -75.143  0.00  0.00    +0.000 C 
ATOM     16  C   UNL     1     -56.933 -40.965 -76.476  0.00  0.00    +0.000 C 
ATOM     17  O   UNL     1     -56.635 -40.156 -77.355  0.00  0.00    +0.000 OA
ENDBRANCH   1  16
BRANCH   2  18
ATOM     18  S   UNL     1     -54.288 -42.529 -75.620  0.00  0.00    +0.000 S 
ATOM     19  O   UNL     1     -53.766 -43.713 -74.848  0.00  0.00    +0.000 OA
BRANCH  18  20
ATOM     20  C   UNL     1     -53.173 -42.337 -77.066  0.00  0.00    +0.000 C 
BRANCH  20  21
ATOM     21  C   UNL     1     -53.366 -41.024 -77.792  0.00  0.00    +0.000 A 
ATOM     22  C   UNL     1     -53.105 -39.797 -77.158  0.00  0.00    +0.000 A 
ATOM     23  C   UNL     1     -53.271 -38.588 -77.841  0.00  0.00    +0.000 A 
ATOM     24  C   UNL     1     -53.689 -38.587 -79.169  0.00  0.00    +0.000 A 
ATOM     25  C   UNL     1     -53.936 -39.796 -79.816  0.00  0.00    +0.000 A 
ATOM     26  C   UNL     1     -53.775 -41.006 -79.135  0.00  0.00    +0.000 A 
ENDBRANCH  20  21
ENDBRANCH  18  20
ENDBRANCH   2  18
TORSDOF 4
ENDMDL
MODEL 15
REMARK VINA RESULT:    -6.363     12.575     14.186
REMARK INTER + INTRA:          -9.086
REMARK INTER:                  -8.239
REMARK INTRA:                  -0.847
REMARK UNBOUND:                -1.235
REMARK  Name = 
REMARK  5 active torsions:
REMARK  status: ('A' for Active; 'I' for Inactive)
REMARK    1  A    between atoms: C_1  and  C_2
REMARK    2  A    between atoms: C_2  and  C_4
REMARK    3  A    between atoms: C_5  and  S_6
REMARK    4  A    between atoms: S_6  and  C_8
REMARK    5  A    between atoms: C_8  and  C_9
REMARK                            x       y       z     vdW  Elec       q    Type
REMARK                         _______ _______ _______ _____ _____    ______ ____
ROOT
ATOM      1  C   UNL     1     -56.874 -43.364 -78.498  0.00  0.00    +0.000 A 
ATOM      2  C   UNL     1     -55.939 -42.638 -77.841  0.00  0.00    +0.000 A 
ATOM      3  N   UNL     1     -55.012 -43.197 -76.980  0.00  0.00    +0.000 N 
ATOM      4  C   UNL     1     -55.029 -44.550 -76.608  0.00  0.00    +0.000 A 
ATOM      5  C   UNL     1     -54.067 -45.067 -75.722  0.00  0.00    +0.000 A 
ATOM      6 BR   UNL     1     -52.758 -43.937 -74.933  0.00  0.00    +0.000 Br
ATOM      7  C   UNL     1     -54.044 -46.420 -75.394  0.00  0.00    +0.000 A 
ATOM      8  C   UNL     1     -54.984 -47.278 -75.958  0.00  0.00    +0.000 A 
ATOM      9  C   UNL     1     -55.936 -46.794 -76.862  0.00  0.00    +0.000 A 
ATOM     10 CL   UNL     1     -57.040 -47.979 -77.470  0.00  0.00    +0.000 Cl
ATOM     11  C   UNL     1     -55.949 -45.427 -77.209  0.00  0.00    +0.000 A 
ATOM     12  C   UNL     1     -56.918 -44.836 -78.174  0.00  0.00    +0.000 A 
ATOM     13  O   UNL     1     -57.782 -45.541 -78.680  0.00  0.00    +0.000 OA
ATOM     14  H   UNL     1     -54.618 -42.555 -76.289  0.00  0.00    +0.000 HD
ENDROOT
BRANCH   1  16
ATOM     15  C   UNL     1     -57.436 -42.545 -80.904  0.00  0.00    +0.000 C 
ATOM     16  C   UNL     1     -57.866 -42.795 -79.476  0.00  0.00    +0.000 C 
ATOM     17  O   UNL     1     -59.012 -42.499 -79.140  0.00  0.00    +0.000 OA
ENDBRANCH   1  16
BRANCH   2  18
ATOM     18  S   UNL     1     -55.925 -40.815 -77.898  0.00  0.00    +0.000 S 
ATOM     19  O   UNL     1     -55.715 -40.430 -76.457  0.00  0.00    +0.000 OA
BRANCH  18  20
ATOM     20  C   UNL     1     -54.308 -40.562 -78.730  0.00  0.00    +0.000 C 
BRANCH  20  21
ATOM     21  C   UNL     1     -53.291 -39.870 -77.850  0.00  0.00    +0.000 A 
ATOM     22  C   UNL     1     -52.375 -40.606 -77.078  0.00  0.00    +0.000 A 
ATOM     23  C   UNL     1     -51.428 -39.959 -76.279  0.00  0.00    +0.000 A 
ATOM     24  C   UNL     1     -51.375 -38.569 -76.246  0.00  0.00    +0.000 A 
ATOM     25  C   UNL     1     -52.265 -37.824 -77.017  0.00  0.00    +0.000 A 
ATOM     26  C   UNL     1     -53.215 -38.469 -77.814  0.00  0.00    +0.000 A 
ENDBRANCH  20  21
ENDBRANCH  18  20
ENDBRANCH   2  18
TORSDOF 4
ENDMDL
MODEL 16
REMARK VINA RESULT:    -6.319      3.722      5.815
REMARK INTER + INTRA:          -9.031
REMARK INTER:                  -8.282
REMARK INTRA:                  -0.749
REMARK UNBOUND:                -1.235
REMARK  Name = 
REMARK  5 active torsions:
REMARK  status: ('A' for Active; 'I' for Inactive)
REMARK    1  A    between atoms: C_1  and  C_2
REMARK    2  A    between atoms: C_2  and  C_4
REMARK    3  A    between atoms: C_5  and  S_6
REMARK    4  A    between atoms: S_6  and  C_8
REMARK    5  A    between atoms: C_8  and  C_9
REMARK                            x       y       z     vdW  Elec       q    Type
REMARK                         _______ _______ _______ _____ _____    ______ ____
ROOT
ATOM      1  C   UNL     1     -54.609 -40.206 -64.171  0.00  0.00    +0.000 A 
ATOM      2  C   UNL     1     -55.638 -40.916 -63.649  0.00  0.00    +0.000 A 
ATOM      3  N   UNL     1     -56.745 -40.330 -63.063  0.00  0.00    +0.000 N 
ATOM      4  C   UNL     1     -56.853 -38.948 -62.842  0.00  0.00    +0.000 A 
ATOM      5  C   UNL     1     -57.998 -38.402 -62.234  0.00  0.00    +0.000 A 
ATOM      6 BR   UNL     1     -59.405 -39.522 -61.619  0.00  0.00    +0.000 Br
ATOM      7  C   UNL     1     -58.136 -37.027 -62.064  0.00  0.00    +0.000 A 
ATOM      8  C   UNL     1     -57.128 -36.176 -62.508  0.00  0.00    +0.000 A 
ATOM      9  C   UNL     1     -55.990 -36.692 -63.138  0.00  0.00    +0.000 A 
ATOM     10 CL   UNL     1     -54.823 -35.511 -63.625  0.00  0.00    +0.000 Cl
ATOM     11  C   UNL     1     -55.857 -38.083 -63.328  0.00  0.00    +0.000 A 
ATOM     12  C   UNL     1     -54.685 -38.709 -64.002  0.00  0.00    +0.000 A 
ATOM     13  O   UNL     1     -53.758 -38.009 -64.389  0.00  0.00    +0.000 OA
ATOM     14  H   UNL     1     -57.255 -40.923 -62.405  0.00  0.00    +0.000 HD
ENDROOT
BRANCH   1  16
ATOM     15  C   UNL     1     -52.350 -41.489 -64.023  0.00  0.00    +0.000 C 
ATOM     16  C   UNL     1     -53.414 -40.811 -64.855  0.00  0.00    +0.000 C 
ATOM     17  O   UNL     1     -53.263 -40.744 -66.075  0.00  0.00    +0.000 OA
ENDBRANCH   1  16
BRANCH   2  18
ATOM     18  S   UNL     1     -55.577 -42.734 -63.515  0.00  0.00    +0.000 S 
ATOM     19  O   UNL     1     -55.218 -42.957 -62.069  0.00  0.00    +0.000 OA
BRANCH  18  20
ATOM     20  C   UNL     1     -57.371 -43.096 -63.652  0.00  0.00    +0.000 C 
BRANCH  20  21
ATOM     21  C   UNL     1     -57.904 -42.926 -65.058  0.00  0.00    +0.000 A 
ATOM     22  C   UNL     1     -57.426 -43.715 -66.118  0.00  0.00    +0.000 A 
ATOM     23  C   UNL     1     -57.934 -43.562 -67.411  0.00  0.00    +0.000 A 
ATOM     24  C   UNL     1     -58.935 -42.627 -67.663  0.00  0.00    +0.000 A 
ATOM     25  C   UNL     1     -59.431 -41.848 -66.619  0.00  0.00    +0.000 A 
ATOM     26  C   UNL     1     -58.921 -41.997 -65.326  0.00  0.00    +0.000 A 
ENDBRANCH  20  21
ENDBRANCH  18  20
ENDBRANCH   2  18
TORSDOF 4
ENDMDL
MODEL 17
REMARK VINA RESULT:    -6.256     11.080     13.383
REMARK INTER + INTRA:          -8.954
REMARK INTER:                  -7.958
REMARK INTRA:                  -0.996
REMARK UNBOUND:                -1.235
REMARK  Name = 
REMARK  5 active torsions:
REMARK  status: ('A' for Active; 'I' for Inactive)
REMARK    1  A    between atoms: C_1  and  C_2
REMARK    2  A    between atoms: C_2  and  C_4
REMARK    3  A    between atoms: C_5  and  S_6
REMARK    4  A    between atoms: S_6  and  C_8
REMARK    5  A    between atoms: C_8  and  C_9
REMARK                            x       y       z     vdW  Elec       q    Type
REMARK                         _______ _______ _______ _____ _____    ______ ____
ROOT
ATOM      1  C   UNL     1     -55.331 -44.310 -76.673  0.00  0.00    +0.000 A 
ATOM      2  C   UNL     1     -56.530 -43.842 -77.095  0.00  0.00    +0.000 A 
ATOM      3  N   UNL     1     -57.590 -44.665 -77.429  0.00  0.00    +0.000 N 
ATOM      4  C   UNL     1     -57.488 -46.064 -77.481  0.00  0.00    +0.000 A 
ATOM      5  C   UNL     1     -58.595 -46.856 -77.835  0.00  0.00    +0.000 A 
ATOM      6 BR   UNL     1     -60.248 -46.058 -78.331  0.00  0.00    +0.000 Br
ATOM      7  C   UNL     1     -58.517 -48.246 -77.833  0.00  0.00    +0.000 A 
ATOM      8  C   UNL     1     -57.324 -48.865 -77.469  0.00  0.00    +0.000 A 
ATOM      9  C   UNL     1     -56.214 -48.101 -77.089  0.00  0.00    +0.000 A 
ATOM     10 CL   UNL     1     -54.804 -49.012 -76.673  0.00  0.00    +0.000 Cl
ATOM     11  C   UNL     1     -56.299 -46.693 -77.072  0.00  0.00    +0.000 A 
ATOM     12  C   UNL     1     -55.170 -45.809 -76.666  0.00  0.00    +0.000 A 
ATOM     13  O   UNL     1     -54.091 -46.300 -76.361  0.00  0.00    +0.000 OA
ATOM     14  H   UNL     1     -58.283 -44.250 -78.056  0.00  0.00    +0.000 HD
ENDROOT
BRANCH   1  16
ATOM     15  C   UNL     1     -54.039 -43.035 -74.808  0.00  0.00    +0.000 C 
ATOM     16  C   UNL     1     -54.174 -43.443 -76.258  0.00  0.00    +0.000 C 
ATOM     17  O   UNL     1     -53.347 -43.031 -77.071  0.00  0.00    +0.000 OA
ENDBRANCH   1  16
BRANCH   2  18
ATOM     18  S   UNL     1     -56.804 -42.071 -77.430  0.00  0.00    +0.000 S 
ATOM     19  O   UNL     1     -57.292 -42.066 -78.856  0.00  0.00    +0.000 OA
BRANCH  18  20
ATOM     20  C   UNL     1     -58.290 -41.803 -76.386  0.00  0.00    +0.000 C 
BRANCH  20  21
ATOM     21  C   UNL     1     -57.959 -41.606 -74.923  0.00  0.00    +0.000 A 
ATOM     22  C   UNL     1     -57.619 -42.694 -74.102  0.00  0.00    +0.000 A 
ATOM     23  C   UNL     1     -57.299 -42.502 -72.754  0.00  0.00    +0.000 A 
ATOM     24  C   UNL     1     -57.306 -41.221 -72.210  0.00  0.00    +0.000 A 
ATOM     25  C   UNL     1     -57.626 -40.130 -73.016  0.00  0.00    +0.000 A 
ATOM     26  C   UNL     1     -57.949 -40.320 -74.362  0.00  0.00    +0.000 A 
ENDBRANCH  20  21
ENDBRANCH  18  20
ENDBRANCH   2  18
TORSDOF 4
ENDMDL
MODEL 18
REMARK VINA RESULT:    -6.245     14.628     17.094
REMARK INTER + INTRA:          -8.941
REMARK INTER:                  -8.141
REMARK INTRA:                  -0.799
REMARK UNBOUND:                -1.235
REMARK  Name = 
REMARK  5 active torsions:
REMARK  status: ('A' for Active; 'I' for Inactive)
REMARK    1  A    between atoms: C_1  and  C_2
REMARK    2  A    between atoms: C_2  and  C_4
REMARK    3  A    between atoms: C_5  and  S_6
REMARK    4  A    between atoms: S_6  and  C_8
REMARK    5  A    between atoms: C_8  and  C_9
REMARK                            x       y       z     vdW  Elec       q    Type
REMARK                         _______ _______ _______ _____ _____    ______ ____
ROOT
ATOM      1  C   UNL     1     -68.823 -51.207 -55.663  0.00  0.00    +0.000 A 
ATOM      2  C   UNL     1     -67.964 -50.165 -55.764  0.00  0.00    +0.000 A 
ATOM      3  N   UNL     1     -66.809 -50.059 -55.011  0.00  0.00    +0.000 N 
ATOM      4  C   UNL     1     -66.477 -50.958 -53.984  0.00  0.00    +0.000 A 
ATOM      5  C   UNL     1     -65.293 -50.800 -53.242  0.00  0.00    +0.000 A 
ATOM      6 BR   UNL     1     -64.138 -49.323 -53.549  0.00  0.00    +0.000 Br
ATOM      7  C   UNL     1     -64.930 -51.720 -52.262  0.00  0.00    +0.000 A 
ATOM      8  C   UNL     1     -65.750 -52.818 -52.015  0.00  0.00    +0.000 A 
ATOM      9  C   UNL     1     -66.921 -53.011 -52.756  0.00  0.00    +0.000 A 
ATOM     10 CL   UNL     1     -67.837 -54.415 -52.328  0.00  0.00    +0.000 Cl
ATOM     11  C   UNL     1     -67.280 -52.090 -53.762  0.00  0.00    +0.000 A 
ATOM     12  C   UNL     1     -68.501 -52.232 -54.605  0.00  0.00    +0.000 A 
ATOM     13  O   UNL     1     -69.269 -53.165 -54.413  0.00  0.00    +0.000 OA
ATOM     14  H   UNL     1     -66.448 -49.109 -54.899  0.00  0.00    +0.000 HD
ENDROOT
BRANCH   1  16
ATOM     15  C   UNL     1     -71.387 -50.878 -55.966  0.00  0.00    +0.000 C 
ATOM     16  C   UNL     1     -70.062 -51.376 -56.499  0.00  0.00    +0.000 C 
ATOM     17  O   UNL     1     -70.035 -51.935 -57.595  0.00  0.00    +0.000 OA
ENDBRANCH   1  16
BRANCH   2  18
ATOM     18  S   UNL     1     -68.344 -48.704 -56.787  0.00  0.00    +0.000 S 
ATOM     19  O   UNL     1     -69.426 -48.010 -56.001  0.00  0.00    +0.000 OA
BRANCH  18  20
ATOM     20  C   UNL     1     -66.811 -47.739 -56.498  0.00  0.00    +0.000 C 
BRANCH  20  21
ATOM     21  C   UNL     1     -66.010 -47.504 -57.760  0.00  0.00    +0.000 A 
ATOM     22  C   UNL     1     -64.821 -46.755 -57.738  0.00  0.00    +0.000 A 
ATOM     23  C   UNL     1     -64.079 -46.555 -58.906  0.00  0.00    +0.000 A 
ATOM     24  C   UNL     1     -64.508 -47.108 -60.110  0.00  0.00    +0.000 A 
ATOM     25  C   UNL     1     -65.677 -47.866 -60.144  0.00  0.00    +0.000 A 
ATOM     26  C   UNL     1     -66.422 -48.064 -58.979  0.00  0.00    +0.000 A 
ENDBRANCH  20  21
ENDBRANCH  18  20
ENDBRANCH   2  18
TORSDOF 4
ENDMDL
MODEL 19
REMARK VINA RESULT:    -6.235      3.850      6.064
REMARK INTER + INTRA:          -8.928
REMARK INTER:                  -8.097
REMARK INTRA:                  -0.831
REMARK UNBOUND:                -1.235
REMARK  Name = 
REMARK  5 active torsions:
REMARK  status: ('A' for Active; 'I' for Inactive)
REMARK    1  A    between atoms: C_1  and  C_2
REMARK    2  A    between atoms: C_2  and  C_4
REMARK    3  A    between atoms: C_5  and  S_6
REMARK    4  A    between atoms: S_6  and  C_8
REMARK    5  A    between atoms: C_8  and  C_9
REMARK                            x       y       z     vdW  Elec       q    Type
REMARK                         _______ _______ _______ _____ _____    ______ ____
ROOT
ATOM      1  C   UNL     1     -58.070 -39.862 -62.294  0.00  0.00    +0.000 A 
ATOM      2  C   UNL     1     -57.221 -40.802 -62.773  0.00  0.00    +0.000 A 
ATOM      3  N   UNL     1     -55.994 -40.500 -63.335  0.00  0.00    +0.000 N 
ATOM      4  C   UNL     1     -55.564 -39.186 -63.576  0.00  0.00    +0.000 A 
ATOM      5  C   UNL     1     -54.309 -38.933 -64.159  0.00  0.00    +0.000 A 
ATOM      6 BR   UNL     1     -53.184 -40.361 -64.713  0.00  0.00    +0.000 Br
ATOM      7  C   UNL     1     -53.852 -37.631 -64.348  0.00  0.00    +0.000 A 
ATOM      8  C   UNL     1     -54.647 -36.561 -63.948  0.00  0.00    +0.000 A 
ATOM      9  C   UNL     1     -55.889 -36.785 -63.344  0.00  0.00    +0.000 A 
ATOM     10 CL   UNL     1     -56.763 -35.356 -62.911  0.00  0.00    +0.000 Cl
ATOM     11  C   UNL     1     -56.345 -38.103 -63.135  0.00  0.00    +0.000 A 
ATOM     12  C   UNL     1     -57.646 -38.427 -62.485  0.00  0.00    +0.000 A 
ATOM     13  O   UNL     1     -58.396 -37.524 -62.137  0.00  0.00    +0.000 OA
ATOM     14  H   UNL     1     -55.619 -41.210 -63.968  0.00  0.00    +0.000 HD
ENDROOT
BRANCH   1  16
ATOM     15  C   UNL     1     -60.648 -40.174 -62.474  0.00  0.00    +0.000 C 
ATOM     16  C   UNL     1     -59.390 -40.158 -61.635  0.00  0.00    +0.000 C 
ATOM     17  O   UNL     1     -59.479 -40.361 -60.425  0.00  0.00    +0.000 OA
ENDBRANCH   1  16
BRANCH   2  18
ATOM     18  S   UNL     1     -57.697 -42.559 -62.879  0.00  0.00    +0.000 S 
ATOM     19  O   UNL     1     -58.558 -42.605 -64.114  0.00  0.00    +0.000 OA
BRANCH  18  20
ATOM     20  C   UNL     1     -56.077 -43.271 -63.364  0.00  0.00    +0.000 C 
BRANCH  20  21
ATOM     21  C   UNL     1     -55.224 -43.667 -62.179  0.00  0.00    +0.000 A 
ATOM     22  C   UNL     1     -55.533 -43.227 -60.880  0.00  0.00    +0.000 A 
ATOM     23  C   UNL     1     -54.749 -43.609 -59.788  0.00  0.00    +0.000 A 
ATOM     24  C   UNL     1     -53.651 -44.444 -59.974  0.00  0.00    +0.000 A 
ATOM     25  C   UNL     1     -53.341 -44.902 -61.253  0.00  0.00    +0.000 A 
ATOM     26  C   UNL     1     -54.121 -44.519 -62.347  0.00  0.00    +0.000 A 
ENDBRANCH  20  21
ENDBRANCH  18  20
ENDBRANCH   2  18
TORSDOF 4
ENDMDL
MODEL 20
REMARK VINA RESULT:    -6.207     11.271     13.416
REMARK INTER + INTRA:          -8.894
REMARK INTER:                  -8.005
REMARK INTRA:                  -0.888
REMARK UNBOUND:                -1.235
REMARK  Name = 
REMARK  5 active torsions:
REMARK  status: ('A' for Active; 'I' for Inactive)
REMARK    1  A    between atoms: C_1  and  C_2
REMARK    2  A    between atoms: C_2  and  C_4
REMARK    3  A    between atoms: C_5  and  S_6
REMARK    4  A    between atoms: S_6  and  C_8
REMARK    5  A    between atoms: C_8  and  C_9
REMARK                            x       y       z     vdW  Elec       q    Type
REMARK                         _______ _______ _______ _____ _____    ______ ____
ROOT
ATOM      1  C   UNL     1     -58.777 -45.359 -77.951  0.00  0.00    +0.000 A 
ATOM      2  C   UNL     1     -57.995 -44.377 -77.443  0.00  0.00    +0.000 A 
ATOM      3  N   UNL     1     -56.743 -44.609 -76.903  0.00  0.00    +0.000 N 
ATOM      4  C   UNL     1     -56.214 -45.895 -76.716  0.00  0.00    +0.000 A 
ATOM      5  C   UNL     1     -54.938 -46.076 -76.153  0.00  0.00    +0.000 A 
ATOM      6 BR   UNL     1     -53.915 -44.591 -75.554  0.00  0.00    +0.000 Br
ATOM      7  C   UNL     1     -54.385 -47.347 -76.018  0.00  0.00    +0.000 A 
ATOM      8  C   UNL     1     -55.103 -48.458 -76.452  0.00  0.00    +0.000 A 
ATOM      9  C   UNL     1     -56.365 -48.303 -77.037  0.00  0.00    +0.000 A 
ATOM     10 CL   UNL     1     -57.136 -49.776 -77.518  0.00  0.00    +0.000 Cl
ATOM     11  C   UNL     1     -56.919 -47.015 -77.192  0.00  0.00    +0.000 A 
ATOM     12  C   UNL     1     -58.247 -46.764 -77.818  0.00  0.00    +0.000 A 
ATOM     13  O   UNL     1     -58.932 -47.707 -78.195  0.00  0.00    +0.000 OA
ATOM     14  H   UNL     1     -56.414 -43.897 -76.247  0.00  0.00    +0.000 HD
ENDROOT
BRANCH   1  16
ATOM     15  C   UNL     1     -61.372 -45.299 -77.752  0.00  0.00    +0.000 C 
ATOM     16  C   UNL     1     -60.122 -45.136 -78.588  0.00  0.00    +0.000 C 
ATOM     17  O   UNL     1     -60.237 -44.852 -79.779  0.00  0.00    +0.000 OA
ENDBRANCH   1  16
BRANCH   2  18
ATOM     18  S   UNL     1     -58.598 -42.665 -77.267  0.00  0.00    +0.000 S 
ATOM     19  O   UNL     1     -59.598 -42.770 -76.145  0.00  0.00    +0.000 OA
BRANCH  18  20
ATOM     20  C   UNL     1     -57.097 -41.902 -76.536  0.00  0.00    +0.000 C 
BRANCH  20  21
ATOM     21  C   UNL     1     -57.236 -41.621 -75.055  0.00  0.00    +0.000 A 
ATOM     22  C   UNL     1     -56.778 -42.539 -74.095  0.00  0.00    +0.000 A 
ATOM     23  C   UNL     1     -56.896 -42.265 -72.729  0.00  0.00    +0.000 A 
ATOM     24  C   UNL     1     -57.464 -41.068 -72.303  0.00  0.00    +0.000 A 
ATOM     25  C   UNL     1     -57.909 -40.141 -73.243  0.00  0.00    +0.000 A 
ATOM     26  C   UNL     1     -57.795 -40.414 -74.609  0.00  0.00    +0.000 A 
ENDBRANCH  20  21
ENDBRANCH  18  20
ENDBRANCH   2  18
TORSDOF 4
ENDMDL
