REMARK VINA RESULT:    -5.888     15.656     16.562
REMARK INTER + INTRA:          -8.025
REMARK INTER:                  -7.243
REMARK INTRA:                  -0.781
REMARK UNBOUND:                -0.760
REMARK  Name = 
REMARK  6 active torsions:
REMARK  status: ('A' for Active; 'I' for Inactive)
REMARK    1  A    between atoms: C_1  and  C_2
REMARK    2  A    between atoms: C_2  and  C_4
REMARK    3  A    between atoms: C_5  and  S_6
REMARK    4  A    between atoms: S_6  and  C_8
REMARK    5  A    between atoms: C_8  and  C_9
REMARK    6  A    between atoms: C_11  and  C_12
REMARK                            x       y       z     vdW  Elec       q    Type
REMARK                         _______ _______ _______ _____ _____    ______ ____
ROOT
ATOM      1  C   UNL     1     -55.165 -42.714 -78.911  0.00  0.00    +0.000 A 
ATOM      2  C   UNL     1     -54.286 -41.689 -78.789  0.00  0.00    +0.000 A 
ATOM      3  N   UNL     1     -53.318 -41.638 -77.808  0.00  0.00    +0.000 N 
ATOM      4  C   UNL     1     -53.205 -42.598 -76.790  0.00  0.00    +0.000 A 
ATOM      5  C   UNL     1     -52.156 -42.534 -75.853  0.00  0.00    +0.000 A 
ATOM      6 BR   UNL     1     -50.884 -41.124 -75.903  0.00  0.00    +0.000 Br
ATOM      7  C   UNL     1     -52.009 -43.513 -74.872  0.00  0.00    +0.000 A 
ATOM      8  C   UNL     1     -52.916 -44.568 -74.812  0.00  0.00    +0.000 A 
ATOM      9  C   UNL     1     -53.953 -44.665 -75.749  0.00  0.00    +0.000 A 
ATOM     10 CL   UNL     1     -55.000 -46.026 -75.541  0.00  0.00    +0.000 Cl
ATOM     11  C   UNL     1     -54.081 -43.697 -76.763  0.00  0.00    +0.000 A 
ATOM     12  C   UNL     1     -55.120 -43.758 -77.825  0.00  0.00    +0.000 A 
ATOM     13  O   UNL     1     -55.972 -44.637 -77.803  0.00  0.00    +0.000 OA
ATOM     14  H   UNL     1     -52.947 -40.712 -77.593  0.00  0.00    +0.000 HD
ENDROOT
BRANCH   1  16
ATOM     15  C   UNL     1     -57.537 -42.218 -79.828  0.00  0.00    +0.000 C 
ATOM     16  C   UNL     1     -56.177 -42.853 -80.013  0.00  0.00    +0.000 C 
ATOM     17  O   UNL     1     -55.940 -43.495 -81.039  0.00  0.00    +0.000 OA
ENDBRANCH   1  16
BRANCH   2  18
ATOM     18  S   UNL     1     -54.409 -40.211 -79.850  0.00  0.00    +0.000 S 
ATOM     19  O   UNL     1     -53.453 -39.241 -79.210  0.00  0.00    +0.000 OA
BRANCH  18  20
ATOM     20  C   UNL     1     -53.558 -40.851 -81.337  0.00  0.00    +0.000 C 
BRANCH  20  21
ATOM     21  C   UNL     1     -54.391 -40.695 -82.564  0.00  0.00    +0.000 A 
ATOM     22  C   UNL     1     -55.633 -40.029 -82.720  0.00  0.00    +0.000 A 
ATOM     23  C   UNL     1     -55.904 -40.112 -84.064  0.00  0.00    +0.000 A 
ATOM     24  C   UNL     1     -56.997 -39.633 -84.930  0.00  0.00    +0.000 C 
ATOM     25  O   UNL     1     -54.896 -40.788 -84.678  0.00  0.00    +0.000 OA
ATOM     26  N   UNL     1     -53.943 -41.151 -83.742  0.00  0.00    +0.000 NA
ENDBRANCH  20  21
ENDBRANCH  18  20
ENDBRANCH   2  18
TORSDOF 4
