REMARK VINA RESULT:    -5.317     22.526     26.102
REMARK INTER + INTRA:          -7.782
REMARK INTER:                  -6.905
REMARK INTRA:                  -0.877
REMARK UNBOUND:                -0.911
REMARK  Name = 
REMARK  6 active torsions:
REMARK  status: ('A' for Active; 'I' for Inactive)
REMARK    1  A    between atoms: C_1  and  C_2
REMARK    2  A    between atoms: C_4  and  C_5
REMARK    3  A    between atoms: C_5  and  S_6
REMARK    4  A    between atoms: S_6  and  C_8
REMARK    5  A    between atoms: C_20  and  C_21
REMARK    6  A    between atoms: C_21  and  C_23
REMARK                            x       y       z     vdW  Elec       q    Type
REMARK                         _______ _______ _______ _____ _____    ______ ____
ROOT
ATOM      1  C   UNL     1     -67.162 -50.440 -54.662  0.00  0.00    +0.000 A 
ATOM      2  N   UNL     1     -67.689 -49.960 -55.877  0.00  0.00    +0.000 N 
ATOM      3  C   UNL     1     -68.953 -50.410 -56.346  0.00  0.00    +0.000 A 
ATOM      4  C   UNL     1     -69.708 -49.714 -57.309  0.00  0.00    +0.000 A 
ATOM      5 BR   UNL     1     -69.165 -48.006 -57.930  0.00  0.00    +0.000 Br
ATOM      6  C   UNL     1     -70.897 -50.249 -57.824  0.00  0.00    +0.000 A 
ATOM      7  C   UNL     1     -71.361 -51.483 -57.355  0.00  0.00    +0.000 A 
ATOM      8  C   UNL     1     -70.631 -52.191 -56.399  0.00  0.00    +0.000 A 
ATOM      9 CL   UNL     1     -71.325 -53.668 -55.835  0.00  0.00    +0.000 Cl
ATOM     10  C   UNL     1     -69.424 -51.662 -55.918  0.00  0.00    +0.000 A 
ATOM     11  C   UNL     1     -68.544 -52.375 -54.973  0.00  0.00    +0.000 A 
ATOM     12  O   UNL     1     -68.479 -53.598 -54.950  0.00  0.00    +0.000 OA
ATOM     13  C   UNL     1     -67.657 -51.556 -54.083  0.00  0.00    +0.000 A 
ATOM     14  H   UNL     1     -67.540 -48.948 -55.993  0.00  0.00    +0.000 HD
ENDROOT
BRANCH   1  15
ATOM     15  S   UNL     1     -66.145 -49.207 -53.809  0.00  0.00    +0.000 S 
ATOM     16  O   UNL     1     -66.840 -49.003 -52.491  0.00  0.00    +0.000 OA
BRANCH  15  17
ATOM     17  C   UNL     1     -66.216 -47.632 -54.711  0.00  0.00    +0.000 C 
BRANCH  17  21
ATOM     18  C   UNL     1     -63.780 -46.412 -59.047  0.00  0.00    +0.000 C 
ATOM     19  C   UNL     1     -64.293 -46.736 -57.703  0.00  0.00    +0.000 A 
ATOM     20  C   UNL     1     -65.537 -47.003 -57.181  0.00  0.00    +0.000 A 
ATOM     21  C   UNL     1     -65.292 -47.327 -55.828  0.00  0.00    +0.000 A 
ATOM     22  N   UNL     1     -63.985 -47.193 -55.540  0.00  0.00    +0.000 NA
ATOM     23  O   UNL     1     -63.366 -46.825 -56.716  0.00  0.00    +0.000 OA
ENDBRANCH  17  21
ENDBRANCH  15  17
ENDBRANCH   1  15
BRANCH  13  24
ATOM     24  C   UNL     1     -67.624 -52.030 -52.670  0.00  0.00    +0.000 C 
ATOM     25  O   UNL     1     -68.600 -51.905 -51.951  0.00  0.00    +0.000 OA
BRANCH  24  26
ATOM     26  C   UNL     1     -66.406 -52.698 -52.172  0.00  0.00    +0.000 C 
ATOM     27  C   UNL     1     -65.486 -53.384 -53.149  0.00  0.00    +0.000 C 
ATOM     28  C   UNL     1     -66.280 -54.203 -52.177  0.00  0.00    +0.000 C 
ENDBRANCH  24  26
ENDBRANCH  13  24
TORSDOF 5
