REMARK VINA RESULT:    -6.096      3.085      5.146
REMARK INTER + INTRA:          -8.258
REMARK INTER:                  -7.378
REMARK INTRA:                  -0.880
REMARK UNBOUND:                -0.736
REMARK  Name = 
REMARK  6 active torsions:
REMARK  status: ('A' for Active; 'I' for Inactive)
REMARK    1  A    between atoms: C_1  and  C_2
REMARK    2  A    between atoms: C_2  and  C_4
REMARK    3  A    between atoms: C_5  and  S_6
REMARK    4  A    between atoms: S_6  and  C_8
REMARK    5  A    between atoms: C_8  and  C_9
REMARK    6  A    between atoms: C_11  and  C_12
REMARK                            x       y       z     vdW  Elec       q    Type
REMARK                         _______ _______ _______ _____ _____    ______ ____
ROOT
ATOM      1  C   UNL     1     -56.922 -43.507 -78.272  0.00  0.00    +0.000 A 
ATOM      2  C   UNL     1     -55.943 -42.784 -77.685  0.00  0.00    +0.000 A 
ATOM      3  N   UNL     1     -54.900 -43.359 -76.979  0.00  0.00    +0.000 N 
ATOM      4  C   UNL     1     -54.933 -44.708 -76.580  0.00  0.00    +0.000 A 
ATOM      5  C   UNL     1     -53.991 -45.218 -75.670  0.00  0.00    +0.000 A 
ATOM      6 BR   UNL     1     -52.679 -44.089 -74.888  0.00  0.00    +0.000 Br
ATOM      7  C   UNL     1     -54.008 -46.561 -75.304  0.00  0.00    +0.000 A 
ATOM      8  C   UNL     1     -54.966 -47.412 -75.851  0.00  0.00    +0.000 A 
ATOM      9  C   UNL     1     -55.895 -46.931 -76.782  0.00  0.00    +0.000 A 
ATOM     10 CL   UNL     1     -57.073 -48.066 -77.336  0.00  0.00    +0.000 Cl
ATOM     11  C   UNL     1     -55.861 -45.582 -77.171  0.00  0.00    +0.000 A 
ATOM     12  C   UNL     1     -56.754 -44.999 -78.208  0.00  0.00    +0.000 A 
ATOM     13  O   UNL     1     -57.311 -45.714 -79.032  0.00  0.00    +0.000 OA
ATOM     14  H   UNL     1     -54.468 -42.735 -76.294  0.00  0.00    +0.000 HD
ENDROOT
BRANCH   1  16
ATOM     15  C   UNL     1     -59.431 -42.795 -78.212  0.00  0.00    +0.000 C 
ATOM     16  C   UNL     1     -58.124 -42.935 -78.971  0.00  0.00    +0.000 C 
ATOM     17  O   UNL     1     -58.063 -42.583 -80.147  0.00  0.00    +0.000 OA
ENDBRANCH   1  16
BRANCH   2  18
ATOM     18  S   UNL     1     -55.980 -40.961 -77.644  0.00  0.00    +0.000 S 
ATOM     19  O   UNL     1     -55.548 -40.640 -76.239  0.00  0.00    +0.000 OA
BRANCH  18  20
ATOM     20  C   UNL     1     -54.521 -40.656 -78.716  0.00  0.00    +0.000 C 
BRANCH  20  21
ATOM     21  C   UNL     1     -53.202 -40.796 -78.027  0.00  0.00    +0.000 A 
ATOM     22  C   UNL     1     -52.583 -39.996 -77.031  0.00  0.00    +0.000 A 
ATOM     23  C   UNL     1     -51.433 -40.673 -76.704  0.00  0.00    +0.000 A 
ATOM     24  C   UNL     1     -50.327 -40.444 -75.754  0.00  0.00    +0.000 C 
ATOM     25  O   UNL     1     -51.359 -41.806 -77.447  0.00  0.00    +0.000 OA
ATOM     26  N   UNL     1     -52.464 -41.892 -78.272  0.00  0.00    +0.000 NA
ENDBRANCH  20  21
ENDBRANCH  18  20
ENDBRANCH   2  18
TORSDOF 4
