REMARK VINA RESULT:    -6.605     12.545     14.534
REMARK INTER + INTRA:          -9.295
REMARK INTER:                  -7.674
REMARK INTRA:                  -1.622
REMARK UNBOUND:                -0.760
REMARK  Name = 
REMARK  8 active torsions:
REMARK  status: ('A' for Active; 'I' for Inactive)
REMARK    1  A    between atoms: C_1  and  C_2
REMARK    2  A    between atoms: C_4  and  C_5
REMARK    3  A    between atoms: C_5  and  S_6
REMARK    4  A    between atoms: S_6  and  C_8
REMARK    5  A    between atoms: C_20  and  C_21
REMARK    6  A    between atoms: C_21  and  C_23
REMARK    7  A    between atoms: C_23  and  C_24
REMARK    8  A    between atoms: C_23  and  C_25
REMARK                            x       y       z     vdW  Elec       q    Type
REMARK                         _______ _______ _______ _____ _____    ______ ____
ROOT
ATOM      1  C   UNL     1     -56.357 -42.200 -78.267  0.00  0.00    +0.000 A 
ATOM      2  N   UNL     1     -55.548 -41.096 -78.013  0.00  0.00    +0.000 N 
ATOM      3  C   UNL     1     -54.297 -41.227 -77.379  0.00  0.00    +0.000 A 
ATOM      4  C   UNL     1     -53.299 -40.240 -77.480  0.00  0.00    +0.000 A 
ATOM      5 BR   UNL     1     -53.522 -38.740 -78.619  0.00  0.00    +0.000 Br
ATOM      6  C   UNL     1     -52.096 -40.359 -76.778  0.00  0.00    +0.000 A 
ATOM      7  C   UNL     1     -51.872 -41.469 -75.968  0.00  0.00    +0.000 A 
ATOM      8  C   UNL     1     -52.854 -42.470 -75.859  0.00  0.00    +0.000 A 
ATOM      9 CL   UNL     1     -52.433 -43.831 -74.883  0.00  0.00    +0.000 Cl
ATOM     10  C   UNL     1     -54.070 -42.347 -76.562  0.00  0.00    +0.000 A 
ATOM     11  C   UNL     1     -55.180 -43.331 -76.488  0.00  0.00    +0.000 A 
ATOM     12  O   UNL     1     -55.288 -44.065 -75.511  0.00  0.00    +0.000 OA
ATOM     13  C   UNL     1     -56.183 -43.386 -77.637  0.00  0.00    +0.000 A 
ATOM     14  H   UNL     1     -55.619 -40.355 -78.724  0.00  0.00    +0.000 HD
ENDROOT
BRANCH   1  15
ATOM     15  S   UNL     1     -57.490 -41.893 -79.674  0.00  0.00    +0.000 S 
ATOM     16  O   UNL     1     -58.693 -42.740 -79.359  0.00  0.00    +0.000 OA
BRANCH  15  17
ATOM     17  C   UNL     1     -56.612 -42.638 -81.090  0.00  0.00    +0.000 C 
BRANCH  17  21
ATOM     18  C   UNL     1     -51.439 -42.613 -80.907  0.00  0.00    +0.000 C 
ATOM     19  C   UNL     1     -52.902 -42.422 -81.018  0.00  0.00    +0.000 A 
ATOM     20  C   UNL     1     -54.001 -43.246 -80.934  0.00  0.00    +0.000 A 
ATOM     21  C   UNL     1     -55.123 -42.385 -81.109  0.00  0.00    +0.000 A 
ATOM     22  N   UNL     1     -54.703 -41.124 -81.307  0.00  0.00    +0.000 NA
ATOM     23  O   UNL     1     -53.323 -41.151 -81.245  0.00  0.00    +0.000 OA
ENDBRANCH  17  21
ENDBRANCH  15  17
ENDBRANCH   1  15
BRANCH  13  24
ATOM     24  C   UNL     1     -56.802 -44.734 -77.935  0.00  0.00    +0.000 C 
ATOM     25  O   UNL     1     -57.799 -45.107 -77.318  0.00  0.00    +0.000 OA
BRANCH  24  26
ATOM     26  C   UNL     1     -56.157 -45.671 -78.957  0.00  0.00    +0.000 C 
ATOM     27  C   UNL     1     -55.117 -46.583 -78.311  0.00  0.00    +0.000 C 
ATOM     28  C   UNL     1     -57.200 -46.504 -79.707  0.00  0.00    +0.000 C 
ENDBRANCH  24  26
ENDBRANCH  13  24
TORSDOF 5
