REMARK VINA RESULT:    -5.859     20.340     24.231
REMARK INTER + INTRA:          -8.488
REMARK INTER:                  -7.419
REMARK INTRA:                  -1.069
REMARK UNBOUND:                -0.917
REMARK  Name = 
REMARK  6 active torsions:
REMARK  status: ('A' for Active; 'I' for Inactive)
REMARK    1  A    between atoms: C_1  and  C_2
REMARK    2  A    between atoms: C_4  and  C_5
REMARK    3  A    between atoms: C_5  and  S_6
REMARK    4  A    between atoms: S_6  and  C_8
REMARK    5  A    between atoms: C_20  and  C_21
REMARK    6  A    between atoms: C_21  and  C_23
REMARK                            x       y       z     vdW  Elec       q    Type
REMARK                         _______ _______ _______ _____ _____    ______ ____
ROOT
ATOM      1  C   UNL     1     -66.700 -48.639 -56.358  0.00  0.00    +0.000 A 
ATOM      2  N   UNL     1     -67.524 -48.289 -57.445  0.00  0.00    +0.000 N 
ATOM      3  C   UNL     1     -68.891 -48.681 -57.472  0.00  0.00    +0.000 A 
ATOM      4  C   UNL     1     -69.851 -48.062 -58.293  0.00  0.00    +0.000 A 
ATOM      5 BR   UNL     1     -69.422 -46.518 -59.308  0.00  0.00    +0.000 Br
ATOM      6  C   UNL     1     -71.163 -48.550 -58.371  0.00  0.00    +0.000 A 
ATOM      7  C   UNL     1     -71.536 -49.657 -57.599  0.00  0.00    +0.000 A 
ATOM      8  C   UNL     1     -70.602 -50.286 -56.776  0.00  0.00    +0.000 A 
ATOM      9 CL   UNL     1     -71.181 -51.596 -55.811  0.00  0.00    +0.000 Cl
ATOM     10  C   UNL     1     -69.283 -49.809 -56.734  0.00  0.00    +0.000 A 
ATOM     11  C   UNL     1     -68.208 -50.460 -55.961  0.00  0.00    +0.000 A 
ATOM     12  O   UNL     1     -68.201 -51.668 -55.757  0.00  0.00    +0.000 OA
ATOM     13  C   UNL     1     -67.066 -49.609 -55.491  0.00  0.00    +0.000 A 
ATOM     14  H   UNL     1     -67.364 -47.323 -57.760  0.00  0.00    +0.000 HD
ENDROOT
BRANCH   1  15
ATOM     15  S   UNL     1     -65.421 -47.398 -56.026  0.00  0.00    +0.000 S 
ATOM     16  O   UNL     1     -65.942 -46.641 -54.835  0.00  0.00    +0.000 OA
BRANCH  15  17
ATOM     17  C   UNL     1     -65.334 -46.231 -57.416  0.00  0.00    +0.000 C 
BRANCH  17  21
ATOM     18  C   UNL     1     -62.045 -47.031 -61.259  0.00  0.00    +0.000 C 
ATOM     19  C   UNL     1     -63.125 -46.927 -60.260  0.00  0.00    +0.000 A 
ATOM     20  C   UNL     1     -63.244 -46.344 -59.020  0.00  0.00    +0.000 A 
ATOM     21  C   UNL     1     -64.594 -46.548 -58.659  0.00  0.00    +0.000 A 
ATOM     22  N   UNL     1     -65.228 -47.274 -59.597  0.00  0.00    +0.000 NA
ATOM     23  O   UNL     1     -64.306 -47.506 -60.596  0.00  0.00    +0.000 OA
ENDBRANCH  17  21
ENDBRANCH  15  17
ENDBRANCH   1  15
BRANCH  13  24
ATOM     24  C   UNL     1     -66.657 -49.879 -54.083  0.00  0.00    +0.000 C 
ATOM     25  O   UNL     1     -67.402 -49.606 -53.159  0.00  0.00    +0.000 OA
BRANCH  24  26
ATOM     26  C   UNL     1     -65.355 -50.526 -53.832  0.00  0.00    +0.000 C 
ATOM     27  C   UNL     1     -64.892 -50.733 -52.413  0.00  0.00    +0.000 C 
ATOM     28  C   UNL     1     -64.184 -49.744 -53.287  0.00  0.00    +0.000 C 
ENDBRANCH  24  26
ENDBRANCH  13  24
TORSDOF 5
