REMARK VINA RESULT:    -5.259     26.150     28.033
REMARK INTER + INTRA:          -7.707
REMARK INTER:                  -6.433
REMARK INTRA:                  -1.275
REMARK UNBOUND:                -0.911
REMARK  Name = 
REMARK  6 active torsions:
REMARK  status: ('A' for Active; 'I' for Inactive)
REMARK    1  A    between atoms: C_1  and  C_2
REMARK    2  A    between atoms: C_4  and  C_5
REMARK    3  A    between atoms: C_5  and  S_6
REMARK    4  A    between atoms: S_6  and  C_8
REMARK    5  A    between atoms: C_20  and  C_21
REMARK    6  A    between atoms: C_21  and  C_23
REMARK                            x       y       z     vdW  Elec       q    Type
REMARK                         _______ _______ _______ _____ _____    ______ ____
ROOT
ATOM      1  C   UNL     1     -66.475 -51.603 -53.810  0.00  0.00    +0.000 A 
ATOM      2  N   UNL     1     -67.022 -50.908 -54.906  0.00  0.00    +0.000 N 
ATOM      3  C   UNL     1     -68.320 -51.227 -55.390  0.00  0.00    +0.000 A 
ATOM      4  C   UNL     1     -69.076 -50.354 -56.194  0.00  0.00    +0.000 A 
ATOM      5 BR   UNL     1     -68.482 -48.587 -56.547  0.00  0.00    +0.000 Br
ATOM      6  C   UNL     1     -70.304 -50.751 -56.741  0.00  0.00    +0.000 A 
ATOM      7  C   UNL     1     -70.804 -52.029 -56.464  0.00  0.00    +0.000 A 
ATOM      8  C   UNL     1     -70.074 -52.912 -55.669  0.00  0.00    +0.000 A 
ATOM      9 CL   UNL     1     -70.811 -54.436 -55.327  0.00  0.00    +0.000 Cl
ATOM     10  C   UNL     1     -68.829 -52.514 -55.156  0.00  0.00    +0.000 A 
ATOM     11  C   UNL     1     -67.948 -53.407 -54.379  0.00  0.00    +0.000 A 
ATOM     12  O   UNL     1     -67.936 -54.618 -54.560  0.00  0.00    +0.000 OA
ATOM     13  C   UNL     1     -66.998 -52.780 -53.402  0.00  0.00    +0.000 A 
ATOM     14  H   UNL     1     -66.834 -49.897 -54.859  0.00  0.00    +0.000 HD
ENDROOT
BRANCH   1  15
ATOM     15  S   UNL     1     -65.377 -50.567 -52.807  0.00  0.00    +0.000 S 
ATOM     16  O   UNL     1     -64.535 -51.553 -52.044  0.00  0.00    +0.000 OA
BRANCH  15  17
ATOM     17  C   UNL     1     -66.360 -49.638 -51.593  0.00  0.00    +0.000 C 
BRANCH  17  21
ATOM     18  C   UNL     1     -71.243 -48.480 -52.611  0.00  0.00    +0.000 C 
ATOM     19  C   UNL     1     -69.806 -48.603 -52.303  0.00  0.00    +0.000 A 
ATOM     20  C   UNL     1     -68.955 -49.656 -52.065  0.00  0.00    +0.000 A 
ATOM     21  C   UNL     1     -67.681 -49.061 -51.934  0.00  0.00    +0.000 A 
ATOM     22  N   UNL     1     -67.776 -47.722 -52.018  0.00  0.00    +0.000 NA
ATOM     23  O   UNL     1     -69.106 -47.442 -52.250  0.00  0.00    +0.000 OA
ENDBRANCH  17  21
ENDBRANCH  15  17
ENDBRANCH   1  15
BRANCH  13  24
ATOM     24  C   UNL     1     -66.937 -53.484 -52.089  0.00  0.00    +0.000 C 
ATOM     25  O   UNL     1     -66.102 -54.350 -51.889  0.00  0.00    +0.000 OA
BRANCH  24  26
ATOM     26  C   UNL     1     -67.872 -53.082 -51.022  0.00  0.00    +0.000 C 
ATOM     27  C   UNL     1     -68.387 -54.120 -50.058  0.00  0.00    +0.000 C 
ATOM     28  C   UNL     1     -69.322 -53.502 -51.053  0.00  0.00    +0.000 C 
ENDBRANCH  24  26
ENDBRANCH  13  24
TORSDOF 5
