REMARK VINA RESULT:    -5.755     22.827     26.028
REMARK INTER + INTRA:          -8.491
REMARK INTER:                  -7.619
REMARK INTRA:                  -0.872
REMARK UNBOUND:                -1.054
REMARK  Name = 
REMARK  8 active torsions:
REMARK  status: ('A' for Active; 'I' for Inactive)
REMARK    1  A    between atoms: C_1  and  C_2
REMARK    2  A    between atoms: C_4  and  C_5
REMARK    3  A    between atoms: C_5  and  S_6
REMARK    4  A    between atoms: S_6  and  C_8
REMARK    5  A    between atoms: C_20  and  C_21
REMARK    6  A    between atoms: C_21  and  C_23
REMARK    7  A    between atoms: C_23  and  C_24
REMARK    8  A    between atoms: C_23  and  C_25
REMARK                            x       y       z     vdW  Elec       q    Type
REMARK                         _______ _______ _______ _____ _____    ______ ____
ROOT
ATOM      1  C   UNL     1     -67.164 -49.765 -54.674  0.00  0.00    +0.000 A 
ATOM      2  N   UNL     1     -67.851 -50.779 -55.333  0.00  0.00    +0.000 N 
ATOM      3  C   UNL     1     -67.974 -52.069 -54.780  0.00  0.00    +0.000 A 
ATOM      4  C   UNL     1     -68.977 -52.967 -55.189  0.00  0.00    +0.000 A 
ATOM      5 BR   UNL     1     -70.331 -52.430 -56.404  0.00  0.00    +0.000 Br
ATOM      6  C   UNL     1     -69.028 -54.268 -54.680  0.00  0.00    +0.000 A 
ATOM      7  C   UNL     1     -68.081 -54.688 -53.751  0.00  0.00    +0.000 A 
ATOM      8  C   UNL     1     -67.075 -53.803 -53.322  0.00  0.00    +0.000 A 
ATOM      9 CL   UNL     1     -66.002 -54.413 -52.115  0.00  0.00    +0.000 Cl
ATOM     10  C   UNL     1     -67.019 -52.493 -53.842  0.00  0.00    +0.000 A 
ATOM     11  C   UNL     1     -65.979 -51.496 -53.479  0.00  0.00    +0.000 A 
ATOM     12  O   UNL     1     -64.889 -51.869 -53.056  0.00  0.00    +0.000 OA
ATOM     13  C   UNL     1     -66.293 -50.014 -53.667  0.00  0.00    +0.000 A 
ATOM     14  H   UNL     1     -68.651 -50.448 -55.889  0.00  0.00    +0.000 HD
ENDROOT
BRANCH   1  15
ATOM     15  S   UNL     1     -67.752 -48.108 -55.192  0.00  0.00    +0.000 S 
ATOM     16  O   UNL     1     -69.109 -47.992 -54.551  0.00  0.00    +0.000 OA
BRANCH  15  17
ATOM     17  C   UNL     1     -67.979 -48.289 -56.994  0.00  0.00    +0.000 C 
BRANCH  17  21
ATOM     18  C   UNL     1     -64.299 -47.264 -60.488  0.00  0.00    +0.000 C 
ATOM     19  C   UNL     1     -65.234 -47.448 -59.357  0.00  0.00    +0.000 A 
ATOM     20  C   UNL     1     -66.492 -47.987 -59.211  0.00  0.00    +0.000 A 
ATOM     21  C   UNL     1     -66.789 -47.864 -57.822  0.00  0.00    +0.000 A 
ATOM     22  N   UNL     1     -65.765 -47.264 -57.190  0.00  0.00    +0.000 NA
ATOM     23  O   UNL     1     -64.801 -47.012 -58.146  0.00  0.00    +0.000 OA
ENDBRANCH  17  21
ENDBRANCH  15  17
ENDBRANCH   1  15
BRANCH  13  24
ATOM     24  C   UNL     1     -65.637 -49.053 -52.702  0.00  0.00    +0.000 C 
ATOM     25  O   UNL     1     -66.232 -48.693 -51.686  0.00  0.00    +0.000 OA
BRANCH  24  26
ATOM     26  C   UNL     1     -64.258 -48.468 -53.010  0.00  0.00    +0.000 C 
ATOM     27  C   UNL     1     -63.801 -48.813 -54.426  0.00  0.00    +0.000 C 
ATOM     28  C   UNL     1     -64.217 -46.953 -52.793  0.00  0.00    +0.000 C 
ENDBRANCH  24  26
ENDBRANCH  13  24
TORSDOF 5
