REMARK  Name = 
REMARK  6 active torsions:
REMARK  status: ('A' for Active; 'I' for Inactive)
REMARK    1  A    between atoms: C_1  and  C_2
REMARK    2  A    between atoms: C_2  and  C_4
REMARK    3  A    between atoms: C_5  and  S_6
REMARK    4  A    between atoms: S_6  and  C_8
REMARK    5  A    between atoms: C_8  and  C_9
REMARK    6  A    between atoms: C_11  and  C_12
REMARK                            x       y       z     vdW  Elec       q    Type
REMARK                         _______ _______ _______ _____ _____    ______ ____
ROOT
ATOM      1  C   UNL     1       3.161   0.008  -1.199  0.00  0.00    +0.000 A 
ATOM      2  C   UNL     1       2.867   0.891  -2.179  0.00  0.00    +0.000 A 
ATOM      3  N   UNL     1       3.536   0.939  -3.386  0.00  0.00    +0.000 N 
ATOM      4  C   UNL     1       4.676   0.163  -3.656  0.00  0.00    +0.000 A 
ATOM      5  C   UNL     1       5.336   0.257  -4.895  0.00  0.00    +0.000 A 
ATOM      6 BR   UNL     1       4.748   1.481  -6.226  0.00  0.00    +0.000 Br
ATOM      7  C   UNL     1       6.435  -0.547  -5.188  0.00  0.00    +0.000 A 
ATOM      8  C   UNL     1       6.888  -1.460  -4.242  0.00  0.00    +0.000 A 
ATOM      9  C   UNL     1       6.237  -1.591  -3.009  0.00  0.00    +0.000 A 
ATOM     10 CL   UNL     1       6.924  -2.761  -1.935  0.00  0.00    +0.000 Cl
ATOM     11  C   UNL     1       5.110  -0.794  -2.721  0.00  0.00    +0.000 A 
ATOM     12  C   UNL     1       4.349  -0.883  -1.444  0.00  0.00    +0.000 A 
ATOM     13  O   UNL     1       4.718  -1.657  -0.566  0.00  0.00    +0.000 OA
ATOM     14  H   UNL     1       3.482   1.827  -3.885  0.00  0.00    +0.000 HD
ENDROOT
BRANCH   1  16
ATOM     15  C   UNL     1       2.474  -1.403   0.878  0.00  0.00    +0.000 C 
ATOM     16  C   UNL     1       2.416  -0.102   0.105  0.00  0.00    +0.000 C 
ATOM     17  O   UNL     1       1.750   0.832   0.553  0.00  0.00    +0.000 OA
ENDBRANCH   1  16
BRANCH   2  18
ATOM     18  S   UNL     1       1.659   2.235  -1.917  0.00  0.00    +0.000 S 
ATOM     19  O   UNL     1       2.453   3.479  -2.213  0.00  0.00    +0.000 OA
BRANCH  18  20
ATOM     20  C   UNL     1       0.589   1.966  -3.376  0.00  0.00    +0.000 C 
BRANCH  20  21
ATOM     21  C   UNL     1      -0.553   2.927  -3.393  0.00  0.00    +0.000 A 
ATOM     22  C   UNL     1      -0.533   4.342  -3.511  0.00  0.00    +0.000 A 
ATOM     23  C   UNL     1      -1.857   4.708  -3.507  0.00  0.00    +0.000 A 
ATOM     24  C   UNL     1      -2.577   5.994  -3.580  0.00  0.00    +0.000 C 
ATOM     25  O   UNL     1      -2.626   3.591  -3.410  0.00  0.00    +0.000 OA
ATOM     26  N   UNL     1      -1.814   2.472  -3.347  0.00  0.00    +0.000 NA
ENDBRANCH  20  21
ENDBRANCH  18  20
ENDBRANCH   2  18
TORSDOF 4
