REMARK VINA RESULT:    -5.996      3.443      5.971
REMARK INTER + INTRA:          -8.440
REMARK INTER:                  -7.569
REMARK INTRA:                  -0.871
REMARK UNBOUND:                -1.042
REMARK  Name = 
REMARK  6 active torsions:
REMARK  status: ('A' for Active; 'I' for Inactive)
REMARK    1  A    between atoms: C_1  and  C_2
REMARK    2  A    between atoms: C_2  and  C_4
REMARK    3  A    between atoms: C_5  and  S_6
REMARK    4  A    between atoms: S_6  and  C_8
REMARK    5  A    between atoms: C_8  and  C_9
REMARK    6  A    between atoms: C_11  and  C_12
REMARK                            x       y       z     vdW  Elec       q    Type
REMARK                         _______ _______ _______ _____ _____    ______ ____
ROOT
ATOM      1  C   UNL     1     -57.404 -43.609 -77.832  0.00  0.00    +0.000 A 
ATOM      2  C   UNL     1     -56.329 -43.085 -77.201  0.00  0.00    +0.000 A 
ATOM      3  N   UNL     1     -55.363 -43.852 -76.580  0.00  0.00    +0.000 N 
ATOM      4  C   UNL     1     -55.461 -45.245 -76.455  0.00  0.00    +0.000 A 
ATOM      5  C   UNL     1     -54.442 -45.985 -75.821  0.00  0.00    +0.000 A 
ATOM      6 BR   UNL     1     -52.942 -45.110 -75.047  0.00  0.00    +0.000 Br
ATOM      7  C   UNL     1     -54.502 -47.372 -75.746  0.00  0.00    +0.000 A 
ATOM      8  C   UNL     1     -55.580 -48.047 -76.312  0.00  0.00    +0.000 A 
ATOM      9  C   UNL     1     -56.596 -47.337 -76.965  0.00  0.00    +0.000 A 
ATOM     10 CL   UNL     1     -57.874 -48.310 -77.605  0.00  0.00    +0.000 Cl
ATOM     11  C   UNL     1     -56.528 -45.932 -77.057  0.00  0.00    +0.000 A 
ATOM     12  C   UNL     1     -57.559 -45.105 -77.745  0.00  0.00    +0.000 A 
ATOM     13  O   UNL     1     -58.560 -45.638 -78.209  0.00  0.00    +0.000 OA
ATOM     14  H   UNL     1     -54.801 -43.378 -75.873  0.00  0.00    +0.000 HD
ENDROOT
BRANCH   1  16
ATOM     15  C   UNL     1     -58.227 -42.483 -80.028  0.00  0.00    +0.000 C 
ATOM     16  C   UNL     1     -58.444 -42.802 -78.566  0.00  0.00    +0.000 C 
ATOM     17  O   UNL     1     -59.451 -42.377 -78.002  0.00  0.00    +0.000 OA
ENDBRANCH   1  16
BRANCH   2  18
ATOM     18  S   UNL     1     -56.137 -41.283 -76.994  0.00  0.00    +0.000 S 
ATOM     19  O   UNL     1     -55.624 -41.144 -75.584  0.00  0.00    +0.000 OA
BRANCH  18  20
ATOM     20  C   UNL     1     -54.695 -41.014 -78.083  0.00  0.00    +0.000 C 
BRANCH  20  21
ATOM     21  C   UNL     1     -53.433 -40.777 -77.322  0.00  0.00    +0.000 A 
ATOM     22  C   UNL     1     -52.495 -41.703 -76.794  0.00  0.00    +0.000 A 
ATOM     23  C   UNL     1     -51.518 -40.924 -76.227  0.00  0.00    +0.000 A 
ATOM     24  C   UNL     1     -50.276 -41.202 -75.481  0.00  0.00    +0.000 C 
ATOM     25  O   UNL     1     -51.822 -39.615 -76.430  0.00  0.00    +0.000 OA
ATOM     26  N   UNL     1     -53.016 -39.518 -77.122  0.00  0.00    +0.000 NA
ENDBRANCH  20  21
ENDBRANCH  18  20
ENDBRANCH   2  18
TORSDOF 4
