REMARK VINA RESULT:    -5.035     15.687     16.741
REMARK INTER + INTRA:          -6.883
REMARK INTER:                  -6.210
REMARK INTRA:                  -0.672
REMARK UNBOUND:                -0.670
REMARK  Name = 
REMARK  6 active torsions:
REMARK  status: ('A' for Active; 'I' for Inactive)
REMARK    1  A    between atoms: C_1  and  C_2
REMARK    2  A    between atoms: C_2  and  C_4
REMARK    3  A    between atoms: C_5  and  S_6
REMARK    4  A    between atoms: S_6  and  C_8
REMARK    5  A    between atoms: C_8  and  C_9
REMARK    6  A    between atoms: C_11  and  C_12
REMARK                            x       y       z     vdW  Elec       q    Type
REMARK                         _______ _______ _______ _____ _____    ______ ____
ROOT
ATOM      1  C   UNL     1     -56.850 -41.843 -63.116  0.00  0.00    +0.000 A 
ATOM      2  C   UNL     1     -57.439 -41.332 -62.011  0.00  0.00    +0.000 A 
ATOM      3  N   UNL     1     -57.014 -41.615 -60.727  0.00  0.00    +0.000 N 
ATOM      4  C   UNL     1     -56.017 -42.562 -60.444  0.00  0.00    +0.000 A 
ATOM      5  C   UNL     1     -55.634 -42.838 -59.117  0.00  0.00    +0.000 A 
ATOM      6 BR   UNL     1     -56.512 -42.002 -57.655  0.00  0.00    +0.000 Br
ATOM      7  C   UNL     1     -54.605 -43.735 -58.835  0.00  0.00    +0.000 A 
ATOM      8  C   UNL     1     -53.937 -44.363 -59.881  0.00  0.00    +0.000 A 
ATOM      9  C   UNL     1     -54.284 -44.093 -61.212  0.00  0.00    +0.000 A 
ATOM     10 CL   UNL     1     -53.357 -44.950 -62.394  0.00  0.00    +0.000 Cl
ATOM     11  C   UNL     1     -55.314 -43.177 -61.497  0.00  0.00    +0.000 A 
ATOM     12  C   UNL     1     -55.744 -42.839 -62.881  0.00  0.00    +0.000 A 
ATOM     13  O   UNL     1     -55.231 -43.410 -63.833  0.00  0.00    +0.000 OA
ATOM     14  H   UNL     1     -57.702 -41.462 -59.987  0.00  0.00    +0.000 HD
ENDROOT
BRANCH   1  16
ATOM     15  C   UNL     1     -58.264 -42.403 -65.230  0.00  0.00    +0.000 C 
ATOM     16  C   UNL     1     -57.251 -41.522 -64.533  0.00  0.00    +0.000 C 
ATOM     17  O   UNL     1     -56.761 -40.574 -65.148  0.00  0.00    +0.000 OA
ENDBRANCH   1  16
BRANCH   2  18
ATOM     18  S   UNL     1     -58.977 -40.353 -62.130  0.00  0.00    +0.000 S 
ATOM     19  O   UNL     1     -60.058 -41.401 -62.170  0.00  0.00    +0.000 OA
BRANCH  18  20
ATOM     20  C   UNL     1     -59.025 -39.641 -60.447  0.00  0.00    +0.000 C 
BRANCH  20  21
ATOM     21  C   UNL     1     -60.002 -38.515 -60.313  0.00  0.00    +0.000 A 
ATOM     22  C   UNL     1     -61.217 -38.260 -61.005  0.00  0.00    +0.000 A 
ATOM     23  C   UNL     1     -61.721 -37.125 -60.420  0.00  0.00    +0.000 A 
ATOM     24  C   UNL     1     -62.930 -36.302 -60.629  0.00  0.00    +0.000 C 
ATOM     25  O   UNL     1     -60.883 -36.727 -59.430  0.00  0.00    +0.000 OA
ATOM     26  N   UNL     1     -59.809 -37.595 -59.355  0.00  0.00    +0.000 NA
ENDBRANCH  20  21
ENDBRANCH  18  20
ENDBRANCH   2  18
TORSDOF 4
