REMARK VINA RESULT:    -5.624     13.816     14.994
REMARK INTER + INTRA:          -7.869
REMARK INTER:                  -7.253
REMARK INTRA:                  -0.616
REMARK UNBOUND:                -0.930
REMARK  Name = 
REMARK  6 active torsions:
REMARK  status: ('A' for Active; 'I' for Inactive)
REMARK    1  A    between atoms: C_1  and  C_2
REMARK    2  A    between atoms: C_2  and  C_4
REMARK    3  A    between atoms: C_5  and  S_6
REMARK    4  A    between atoms: S_6  and  C_8
REMARK    5  A    between atoms: C_8  and  C_9
REMARK    6  A    between atoms: C_11  and  C_12
REMARK                            x       y       z     vdW  Elec       q    Type
REMARK                         _______ _______ _______ _____ _____    ______ ____
ROOT
ATOM      1  C   UNL     1     -56.129 -42.312 -75.423  0.00  0.00    +0.000 A 
ATOM      2  C   UNL     1     -56.754 -42.044 -76.593  0.00  0.00    +0.000 A 
ATOM      3  N   UNL     1     -56.092 -41.940 -77.805  0.00  0.00    +0.000 N 
ATOM      4  C   UNL     1     -54.692 -41.798 -77.862  0.00  0.00    +0.000 A 
ATOM      5  C   UNL     1     -54.049 -41.428 -79.055  0.00  0.00    +0.000 A 
ATOM      6 BR   UNL     1     -55.045 -41.054 -80.627  0.00  0.00    +0.000 Br
ATOM      7  C   UNL     1     -52.662 -41.311 -79.108  0.00  0.00    +0.000 A 
ATOM      8  C   UNL     1     -51.903 -41.568 -77.966  0.00  0.00    +0.000 A 
ATOM      9  C   UNL     1     -52.524 -41.972 -76.773  0.00  0.00    +0.000 A 
ATOM     10 CL   UNL     1     -51.489 -42.193 -75.412  0.00  0.00    +0.000 Cl
ATOM     11  C   UNL     1     -53.919 -42.116 -76.734  0.00  0.00    +0.000 A 
ATOM     12  C   UNL     1     -54.664 -42.614 -75.544  0.00  0.00    +0.000 A 
ATOM     13  O   UNL     1     -54.106 -43.297 -74.692  0.00  0.00    +0.000 OA
ATOM     14  H   UNL     1     -56.592 -41.381 -78.502  0.00  0.00    +0.000 HD
ENDROOT
BRANCH   1  16
ATOM     15  C   UNL     1     -56.850 -41.070 -73.252  0.00  0.00    +0.000 C 
ATOM     16  C   UNL     1     -56.781 -42.342 -74.075  0.00  0.00    +0.000 C 
ATOM     17  O   UNL     1     -57.269 -43.380 -73.630  0.00  0.00    +0.000 OA
ENDBRANCH   1  16
BRANCH   2  18
ATOM     18  S   UNL     1     -58.530 -41.634 -76.661  0.00  0.00    +0.000 S 
ATOM     19  O   UNL     1     -58.571 -40.434 -77.569  0.00  0.00    +0.000 OA
BRANCH  18  20
ATOM     20  C   UNL     1     -59.067 -43.063 -77.677  0.00  0.00    +0.000 C 
BRANCH  20  21
ATOM     21  C   UNL     1     -60.547 -43.194 -77.823  0.00  0.00    +0.000 A 
ATOM     22  C   UNL     1     -61.495 -43.934 -77.069  0.00  0.00    +0.000 A 
ATOM     23  C   UNL     1     -62.712 -43.597 -77.608  0.00  0.00    +0.000 A 
ATOM     24  C   UNL     1     -64.114 -43.968 -77.335  0.00  0.00    +0.000 C 
ATOM     25  O   UNL     1     -62.518 -42.703 -78.613  0.00  0.00    +0.000 OA
ATOM     26  N   UNL     1     -61.170 -42.444 -78.747  0.00  0.00    +0.000 NA
ENDBRANCH  20  21
ENDBRANCH  18  20
ENDBRANCH   2  18
TORSDOF 4
