REMARK VINA RESULT:    -5.318      4.008      7.034
REMARK INTER + INTRA:          -7.413
REMARK INTER:                  -6.549
REMARK INTRA:                  -0.864
REMARK UNBOUND:                -0.850
REMARK  Name = 
REMARK  6 active torsions:
REMARK  status: ('A' for Active; 'I' for Inactive)
REMARK    1  A    between atoms: C_1  and  C_2
REMARK    2  A    between atoms: C_2  and  C_4
REMARK    3  A    between atoms: C_5  and  S_6
REMARK    4  A    between atoms: S_6  and  C_8
REMARK    5  A    between atoms: C_8  and  C_9
REMARK    6  A    between atoms: C_11  and  C_12
REMARK                            x       y       z     vdW  Elec       q    Type
REMARK                         _______ _______ _______ _____ _____    ______ ____
ROOT
ATOM      1  C   UNL     1     -55.204 -37.239 -62.834  0.00  0.00    +0.000 A 
ATOM      2  C   UNL     1     -56.179 -37.954 -62.229  0.00  0.00    +0.000 A 
ATOM      3  N   UNL     1     -56.292 -39.323 -62.342  0.00  0.00    +0.000 N 
ATOM      4  C   UNL     1     -55.437 -40.103 -63.138  0.00  0.00    +0.000 A 
ATOM      5  C   UNL     1     -55.530 -41.505 -63.142  0.00  0.00    +0.000 A 
ATOM      6 BR   UNL     1     -56.862 -42.398 -62.116  0.00  0.00    +0.000 Br
ATOM      7  C   UNL     1     -54.648 -42.284 -63.884  0.00  0.00    +0.000 A 
ATOM      8  C   UNL     1     -53.651 -41.666 -64.633  0.00  0.00    +0.000 A 
ATOM      9  C   UNL     1     -53.519 -40.272 -64.626  0.00  0.00    +0.000 A 
ATOM     10 CL   UNL     1     -52.226 -39.650 -65.593  0.00  0.00    +0.000 Cl
ATOM     11  C   UNL     1     -54.397 -39.486 -63.855  0.00  0.00    +0.000 A 
ATOM     12  C   UNL     1     -54.309 -38.005 -63.774  0.00  0.00    +0.000 A 
ATOM     13  O   UNL     1     -53.541 -37.386 -64.504  0.00  0.00    +0.000 OA
ATOM     14  H   UNL     1     -57.206 -39.724 -62.134  0.00  0.00    +0.000 HD
ENDROOT
BRANCH   1  16
ATOM     15  C   UNL     1     -54.022 -35.307 -61.577  0.00  0.00    +0.000 C 
ATOM     16  C   UNL     1     -54.980 -35.763 -62.657  0.00  0.00    +0.000 C 
ATOM     17  O   UNL     1     -55.579 -34.928 -63.332  0.00  0.00    +0.000 OA
ENDBRANCH   1  16
BRANCH   2  18
ATOM     18  S   UNL     1     -57.524 -37.126 -61.320  0.00  0.00    +0.000 S 
ATOM     19  O   UNL     1     -58.408 -36.586 -62.413  0.00  0.00    +0.000 OA
BRANCH  18  20
ATOM     20  C   UNL     1     -58.380 -38.594 -60.663  0.00  0.00    +0.000 C 
BRANCH  20  21
ATOM     21  C   UNL     1     -59.741 -38.763 -61.252  0.00  0.00    +0.000 A 
ATOM     22  C   UNL     1     -60.160 -39.623 -62.300  0.00  0.00    +0.000 A 
ATOM     23  C   UNL     1     -61.520 -39.448 -62.370  0.00  0.00    +0.000 A 
ATOM     24  C   UNL     1     -62.597 -40.027 -63.195  0.00  0.00    +0.000 C 
ATOM     25  O   UNL     1     -61.898 -38.536 -61.435  0.00  0.00    +0.000 OA
ATOM     26  N   UNL     1     -60.787 -38.109 -60.728  0.00  0.00    +0.000 NA
ENDBRANCH  20  21
ENDBRANCH  18  20
ENDBRANCH   2  18
TORSDOF 4
