MODEL 1
REMARK VINA RESULT:    -7.836      0.000      0.000
REMARK INTER + INTRA:         -10.886
REMARK INTER:                 -10.126
REMARK INTRA:                  -0.760
REMARK UNBOUND:                -0.760
REMARK  Name = 
REMARK  8 active torsions:
REMARK  status: ('A' for Active; 'I' for Inactive)
REMARK    1  A    between atoms: C_1  and  C_2
REMARK    2  A    between atoms: C_4  and  C_5
REMARK    3  A    between atoms: C_5  and  S_6
REMARK    4  A    between atoms: S_6  and  C_8
REMARK    5  A    between atoms: C_20  and  C_21
REMARK    6  A    between atoms: C_21  and  C_23
REMARK    7  A    between atoms: C_23  and  C_24
REMARK    8  A    between atoms: C_23  and  C_25
REMARK                            x       y       z     vdW  Elec       q    Type
REMARK                         _______ _______ _______ _____ _____    ______ ____
ROOT
ATOM      1  C   UNL     1     -55.587 -41.438 -63.564  0.00  0.00    +0.000 A 
ATOM      2  N   UNL     1     -54.259 -41.095 -63.800  0.00  0.00    +0.000 N 
ATOM      3  C   UNL     1     -53.243 -42.070 -63.855  0.00  0.00    +0.000 A 
ATOM      4  C   UNL     1     -52.008 -41.829 -64.486  0.00  0.00    +0.000 A 
ATOM      5 BR   UNL     1     -51.700 -40.224 -65.448  0.00  0.00    +0.000 Br
ATOM      6  C   UNL     1     -50.989 -42.785 -64.459  0.00  0.00    +0.000 A 
ATOM      7  C   UNL     1     -51.190 -43.997 -63.804  0.00  0.00    +0.000 A 
ATOM      8  C   UNL     1     -52.420 -44.260 -63.173  0.00  0.00    +0.000 A 
ATOM      9 CL   UNL     1     -52.577 -45.823 -62.456  0.00  0.00    +0.000 Cl
ATOM     10  C   UNL     1     -53.446 -43.292 -63.195  0.00  0.00    +0.000 A 
ATOM     11  C   UNL     1     -54.765 -43.460 -62.532  0.00  0.00    +0.000 A 
ATOM     12  O   UNL     1     -54.885 -44.237 -61.589  0.00  0.00    +0.000 OA
ATOM     13  C   UNL     1     -55.944 -42.633 -63.036  0.00  0.00    +0.000 A 
ATOM     14  H   UNL     1     -54.142 -40.285 -64.423  0.00  0.00    +0.000 HD
ENDROOT
BRANCH   1  15
ATOM     15  S   UNL     1     -56.736 -40.185 -64.248  0.00  0.00    +0.000 S 
ATOM     16  O   UNL     1     -57.390 -39.593 -63.029  0.00  0.00    +0.000 OA
BRANCH  15  17
ATOM     17  C   UNL     1     -57.973 -41.191 -65.136  0.00  0.00    +0.000 C 
BRANCH  17  21
ATOM     18  C   UNL     1     -55.559 -42.781 -69.431  0.00  0.00    +0.000 C 
ATOM     19  C   UNL     1     -56.418 -42.414 -68.284  0.00  0.00    +0.000 A 
ATOM     20  C   UNL     1     -56.205 -41.848 -67.048  0.00  0.00    +0.000 A 
ATOM     21  C   UNL     1     -57.497 -41.750 -66.456  0.00  0.00    +0.000 A 
ATOM     22  N   UNL     1     -58.420 -42.254 -67.294  0.00  0.00    +0.000 NA
ATOM     23  O   UNL     1     -57.746 -42.661 -68.429  0.00  0.00    +0.000 OA
ENDBRANCH  17  21
ENDBRANCH  15  17
ENDBRANCH   1  15
BRANCH  13  24
ATOM     24  C   UNL     1     -57.315 -43.262 -62.918  0.00  0.00    +0.000 C 
ATOM     25  O   UNL     1     -57.645 -44.174 -63.675  0.00  0.00    +0.000 OA
BRANCH  24  26
ATOM     26  C   UNL     1     -58.326 -42.727 -61.904  0.00  0.00    +0.000 C 
ATOM     27  C   UNL     1     -59.454 -43.723 -61.649  0.00  0.00    +0.000 C 
ATOM     28  C   UNL     1     -57.658 -42.332 -60.584  0.00  0.00    +0.000 C 
ENDBRANCH  24  26
ENDBRANCH  13  24
TORSDOF 5
ENDMDL
MODEL 2
REMARK VINA RESULT:    -7.557      2.772      3.955
REMARK INTER + INTRA:         -10.525
REMARK INTER:                  -9.498
REMARK INTRA:                  -1.028
REMARK UNBOUND:                -0.760
REMARK  Name = 
REMARK  8 active torsions:
REMARK  status: ('A' for Active; 'I' for Inactive)
REMARK    1  A    between atoms: C_1  and  C_2
REMARK    2  A    between atoms: C_4  and  C_5
REMARK    3  A    between atoms: C_5  and  S_6
REMARK    4  A    between atoms: S_6  and  C_8
REMARK    5  A    between atoms: C_20  and  C_21
REMARK    6  A    between atoms: C_21  and  C_23
REMARK    7  A    between atoms: C_23  and  C_24
REMARK    8  A    between atoms: C_23  and  C_25
REMARK                            x       y       z     vdW  Elec       q    Type
REMARK                         _______ _______ _______ _____ _____    ______ ____
ROOT
ATOM      1  C   UNL     1     -55.478 -41.942 -63.003  0.00  0.00    +0.000 A 
ATOM      2  N   UNL     1     -54.732 -43.115 -63.051  0.00  0.00    +0.000 N 
ATOM      3  C   UNL     1     -53.367 -43.109 -63.402  0.00  0.00    +0.000 A 
ATOM      4  C   UNL     1     -52.502 -44.167 -63.065  0.00  0.00    +0.000 A 
ATOM      5 BR   UNL     1     -53.092 -45.599 -61.970  0.00  0.00    +0.000 Br
ATOM      6  C   UNL     1     -51.171 -44.172 -63.493  0.00  0.00    +0.000 A 
ATOM      7  C   UNL     1     -50.685 -43.117 -64.259  0.00  0.00    +0.000 A 
ATOM      8  C   UNL     1     -51.531 -42.046 -64.600  0.00  0.00    +0.000 A 
ATOM      9 CL   UNL     1     -50.796 -40.762 -65.492  0.00  0.00    +0.000 Cl
ATOM     10  C   UNL     1     -52.875 -42.045 -64.175  0.00  0.00    +0.000 A 
ATOM     11  C   UNL     1     -53.856 -40.980 -64.509  0.00  0.00    +0.000 A 
ATOM     12  O   UNL     1     -53.688 -40.279 -65.503  0.00  0.00    +0.000 OA
ATOM     13  C   UNL     1     -55.073 -40.799 -63.606  0.00  0.00    +0.000 A 
ATOM     14  H   UNL     1     -55.016 -43.820 -62.357  0.00  0.00    +0.000 HD
ENDROOT
BRANCH   1  15
ATOM     15  S   UNL     1     -56.909 -42.102 -61.869  0.00  0.00    +0.000 S 
ATOM     16  O   UNL     1     -56.348 -42.844 -60.686  0.00  0.00    +0.000 OA
BRANCH  15  17
ATOM     17  C   UNL     1     -58.035 -43.220 -62.770  0.00  0.00    +0.000 C 
BRANCH  17  21
ATOM     18  C   UNL     1     -58.109 -42.672 -67.918  0.00  0.00    +0.000 C 
ATOM     19  C   UNL     1     -58.228 -42.676 -66.443  0.00  0.00    +0.000 A 
ATOM     20  C   UNL     1     -57.745 -43.470 -65.429  0.00  0.00    +0.000 A 
ATOM     21  C   UNL     1     -58.229 -42.874 -64.228  0.00  0.00    +0.000 A 
ATOM     22  N   UNL     1     -58.976 -41.797 -64.524  0.00  0.00    +0.000 NA
ATOM     23  O   UNL     1     -58.969 -41.676 -65.901  0.00  0.00    +0.000 OA
ENDBRANCH  17  21
ENDBRANCH  15  17
ENDBRANCH   1  15
BRANCH  13  24
ATOM     24  C   UNL     1     -55.623 -39.396 -63.480  0.00  0.00    +0.000 C 
ATOM     25  O   UNL     1     -56.818 -39.180 -63.679  0.00  0.00    +0.000 OA
BRANCH  24  26
ATOM     26  C   UNL     1     -54.690 -38.226 -63.169  0.00  0.00    +0.000 C 
ATOM     27  C   UNL     1     -54.804 -37.118 -64.213  0.00  0.00    +0.000 C 
ATOM     28  C   UNL     1     -54.929 -37.660 -61.766  0.00  0.00    +0.000 C 
ENDBRANCH  24  26
ENDBRANCH  13  24
TORSDOF 5
ENDMDL
MODEL 3
REMARK VINA RESULT:    -7.546      2.511      3.998
REMARK INTER + INTRA:         -10.511
REMARK INTER:                  -9.380
REMARK INTRA:                  -1.132
REMARK UNBOUND:                -0.760
REMARK  Name = 
REMARK  8 active torsions:
REMARK  status: ('A' for Active; 'I' for Inactive)
REMARK    1  A    between atoms: C_1  and  C_2
REMARK    2  A    between atoms: C_4  and  C_5
REMARK    3  A    between atoms: C_5  and  S_6
REMARK    4  A    between atoms: S_6  and  C_8
REMARK    5  A    between atoms: C_20  and  C_21
REMARK    6  A    between atoms: C_21  and  C_23
REMARK    7  A    between atoms: C_23  and  C_24
REMARK    8  A    between atoms: C_23  and  C_25
REMARK                            x       y       z     vdW  Elec       q    Type
REMARK                         _______ _______ _______ _____ _____    ______ ____
ROOT
ATOM      1  C   UNL     1     -55.413 -41.438 -63.472  0.00  0.00    +0.000 A 
ATOM      2  N   UNL     1     -54.076 -41.142 -63.719  0.00  0.00    +0.000 N 
ATOM      3  C   UNL     1     -53.103 -42.155 -63.825  0.00  0.00    +0.000 A 
ATOM      4  C   UNL     1     -51.869 -41.944 -64.470  0.00  0.00    +0.000 A 
ATOM      5 BR   UNL     1     -51.510 -40.320 -65.382  0.00  0.00    +0.000 Br
ATOM      6  C   UNL     1     -50.890 -42.941 -64.492  0.00  0.00    +0.000 A 
ATOM      7  C   UNL     1     -51.131 -44.165 -63.875  0.00  0.00    +0.000 A 
ATOM      8  C   UNL     1     -52.361 -44.399 -63.232  0.00  0.00    +0.000 A 
ATOM      9 CL   UNL     1     -52.571 -45.978 -62.565  0.00  0.00    +0.000 Cl
ATOM     10  C   UNL     1     -53.346 -43.390 -63.203  0.00  0.00    +0.000 A 
ATOM     11  C   UNL     1     -54.660 -43.526 -62.523  0.00  0.00    +0.000 A 
ATOM     12  O   UNL     1     -54.797 -44.329 -61.605  0.00  0.00    +0.000 OA
ATOM     13  C   UNL     1     -55.812 -42.635 -62.979  0.00  0.00    +0.000 A 
ATOM     14  H   UNL     1     -53.935 -40.316 -64.317  0.00  0.00    +0.000 HD
ENDROOT
BRANCH   1  15
ATOM     15  S   UNL     1     -56.520 -40.116 -64.093  0.00  0.00    +0.000 S 
ATOM     16  O   UNL     1     -57.237 -40.761 -65.248  0.00  0.00    +0.000 OA
BRANCH  15  17
ATOM     17  C   UNL     1     -55.358 -38.874 -64.756  0.00  0.00    +0.000 C 
BRANCH  17  21
ATOM     18  C   UNL     1     -54.563 -34.419 -62.242  0.00  0.00    +0.000 C 
ATOM     19  C   UNL     1     -54.739 -35.785 -62.782  0.00  0.00    +0.000 A 
ATOM     20  C   UNL     1     -55.213 -36.312 -63.962  0.00  0.00    +0.000 A 
ATOM     21  C   UNL     1     -55.069 -37.723 -63.821  0.00  0.00    +0.000 A 
ATOM     22  N   UNL     1     -54.557 -38.010 -62.612  0.00  0.00    +0.000 NA
ATOM     23  O   UNL     1     -54.351 -36.803 -61.972  0.00  0.00    +0.000 OA
ENDBRANCH  17  21
ENDBRANCH  15  17
ENDBRANCH   1  15
BRANCH  13  24
ATOM     24  C   UNL     1     -57.205 -43.210 -62.858  0.00  0.00    +0.000 C 
ATOM     25  O   UNL     1     -57.560 -44.131 -63.593  0.00  0.00    +0.000 OA
BRANCH  24  26
ATOM     26  C   UNL     1     -58.206 -42.610 -61.869  0.00  0.00    +0.000 C 
ATOM     27  C   UNL     1     -59.407 -43.527 -61.653  0.00  0.00    +0.000 C 
ATOM     28  C   UNL     1     -57.551 -42.269 -60.528  0.00  0.00    +0.000 C 
ENDBRANCH  24  26
ENDBRANCH  13  24
TORSDOF 5
ENDMDL
MODEL 4
REMARK VINA RESULT:    -7.477      8.553     12.735
REMARK INTER + INTRA:         -10.422
REMARK INTER:                  -9.626
REMARK INTRA:                  -0.796
REMARK UNBOUND:                -0.760
REMARK  Name = 
REMARK  8 active torsions:
REMARK  status: ('A' for Active; 'I' for Inactive)
REMARK    1  A    between atoms: C_1  and  C_2
REMARK    2  A    between atoms: C_4  and  C_5
REMARK    3  A    between atoms: C_5  and  S_6
REMARK    4  A    between atoms: S_6  and  C_8
REMARK    5  A    between atoms: C_20  and  C_21
REMARK    6  A    between atoms: C_21  and  C_23
REMARK    7  A    between atoms: C_23  and  C_24
REMARK    8  A    between atoms: C_23  and  C_25
REMARK                            x       y       z     vdW  Elec       q    Type
REMARK                         _______ _______ _______ _____ _____    ______ ____
ROOT
ATOM      1  C   UNL     1     -55.808 -42.647 -76.578  0.00  0.00    +0.000 A 
ATOM      2  N   UNL     1     -54.495 -43.025 -76.316  0.00  0.00    +0.000 N 
ATOM      3  C   UNL     1     -53.455 -42.078 -76.244  0.00  0.00    +0.000 A 
ATOM      4  C   UNL     1     -52.238 -42.349 -75.589  0.00  0.00    +0.000 A 
ATOM      5 BR   UNL     1     -51.992 -43.960 -74.618  0.00  0.00    +0.000 Br
ATOM      6  C   UNL     1     -51.194 -41.421 -75.599  0.00  0.00    +0.000 A 
ATOM      7  C   UNL     1     -51.350 -40.206 -76.260  0.00  0.00    +0.000 A 
ATOM      8  C   UNL     1     -52.560 -39.912 -76.914  0.00  0.00    +0.000 A 
ATOM      9 CL   UNL     1     -52.663 -38.347 -77.637  0.00  0.00    +0.000 Cl
ATOM     10  C   UNL     1     -53.612 -40.851 -76.910  0.00  0.00    +0.000 A 
ATOM     11  C   UNL     1     -54.914 -40.650 -77.598  0.00  0.00    +0.000 A 
ATOM     12  O   UNL     1     -54.996 -39.873 -78.544  0.00  0.00    +0.000 OA
ATOM     13  C   UNL     1     -56.124 -41.444 -77.114  0.00  0.00    +0.000 A 
ATOM     14  H   UNL     1     -54.411 -43.837 -75.689  0.00  0.00    +0.000 HD
ENDROOT
BRANCH   1  15
ATOM     15  S   UNL     1     -57.003 -43.868 -75.913  0.00  0.00    +0.000 S 
ATOM     16  O   UNL     1     -57.672 -44.422 -77.142  0.00  0.00    +0.000 OA
BRANCH  15  17
ATOM     17  C   UNL     1     -58.208 -42.830 -75.018  0.00  0.00    +0.000 C 
BRANCH  17  21
ATOM     18  C   UNL     1     -55.744 -41.356 -70.709  0.00  0.00    +0.000 C 
ATOM     19  C   UNL     1     -56.606 -41.661 -71.873  0.00  0.00    +0.000 A 
ATOM     20  C   UNL     1     -56.434 -42.328 -73.065  0.00  0.00    +0.000 A 
ATOM     21  C   UNL     1     -57.703 -42.268 -73.710  0.00  0.00    +0.000 A 
ATOM     22  N   UNL     1     -58.570 -41.582 -72.945  0.00  0.00    +0.000 NA
ATOM     23  O   UNL     1     -57.885 -41.211 -71.804  0.00  0.00    +0.000 OA
ENDBRANCH  17  21
ENDBRANCH  15  17
ENDBRANCH   1  15
BRANCH  13  24
ATOM     24  C   UNL     1     -57.475 -40.780 -77.259  0.00  0.00    +0.000 C 
ATOM     25  O   UNL     1     -57.776 -39.827 -76.541  0.00  0.00    +0.000 OA
BRANCH  24  26
ATOM     26  C   UNL     1     -58.502 -41.326 -78.251  0.00  0.00    +0.000 C 
ATOM     27  C   UNL     1     -59.633 -40.331 -78.500  0.00  0.00    +0.000 C 
ATOM     28  C   UNL     1     -57.855 -41.737 -79.576  0.00  0.00    +0.000 C 
ENDBRANCH  24  26
ENDBRANCH  13  24
TORSDOF 5
ENDMDL
MODEL 5
REMARK VINA RESULT:    -7.134     10.753     12.997
REMARK INTER + INTRA:          -9.979
REMARK INTER:                  -8.795
REMARK INTRA:                  -1.183
REMARK UNBOUND:                -0.760
REMARK  Name = 
REMARK  8 active torsions:
REMARK  status: ('A' for Active; 'I' for Inactive)
REMARK    1  A    between atoms: C_1  and  C_2
REMARK    2  A    between atoms: C_4  and  C_5
REMARK    3  A    between atoms: C_5  and  S_6
REMARK    4  A    between atoms: S_6  and  C_8
REMARK    5  A    between atoms: C_20  and  C_21
REMARK    6  A    between atoms: C_21  and  C_23
REMARK    7  A    between atoms: C_23  and  C_24
REMARK    8  A    between atoms: C_23  and  C_25
REMARK                            x       y       z     vdW  Elec       q    Type
REMARK                         _______ _______ _______ _____ _____    ______ ____
ROOT
ATOM      1  C   UNL     1     -55.752 -42.669 -77.623  0.00  0.00    +0.000 A 
ATOM      2  N   UNL     1     -55.058 -41.468 -77.510  0.00  0.00    +0.000 N 
ATOM      3  C   UNL     1     -53.743 -41.420 -77.008  0.00  0.00    +0.000 A 
ATOM      4  C   UNL     1     -52.883 -40.334 -77.262  0.00  0.00    +0.000 A 
ATOM      5 BR   UNL     1     -53.396 -38.938 -78.440  0.00  0.00    +0.000 Br
ATOM      6  C   UNL     1     -51.610 -40.275 -76.688  0.00  0.00    +0.000 A 
ATOM      7  C   UNL     1     -51.176 -41.302 -75.855  0.00  0.00    +0.000 A 
ATOM      8  C   UNL     1     -52.016 -42.400 -75.594  0.00  0.00    +0.000 A 
ATOM      9 CL   UNL     1     -51.341 -43.645 -74.606  0.00  0.00    +0.000 Cl
ATOM     10  C   UNL     1     -53.303 -42.456 -76.168  0.00  0.00    +0.000 A 
ATOM     11  C   UNL     1     -54.277 -43.553 -75.929  0.00  0.00    +0.000 A 
ATOM     12  O   UNL     1     -54.197 -44.235 -74.912  0.00  0.00    +0.000 OA
ATOM     13  C   UNL     1     -55.377 -43.789 -76.960  0.00  0.00    +0.000 A 
ATOM     14  H   UNL     1     -55.287 -40.783 -78.243  0.00  0.00    +0.000 HD
ENDROOT
BRANCH   1  15
ATOM     15  S   UNL     1     -57.050 -42.575 -78.913  0.00  0.00    +0.000 S 
ATOM     16  O   UNL     1     -56.644 -41.389 -79.746  0.00  0.00    +0.000 OA
BRANCH  15  17
ATOM     17  C   UNL     1     -58.548 -42.132 -77.969  0.00  0.00    +0.000 C 
BRANCH  17  21
ATOM     18  C   UNL     1     -58.006 -40.874 -72.977  0.00  0.00    +0.000 C 
ATOM     19  C   UNL     1     -58.068 -41.053 -74.444  0.00  0.00    +0.000 A 
ATOM     20  C   UNL     1     -58.442 -42.075 -75.286  0.00  0.00    +0.000 A 
ATOM     21  C   UNL     1     -58.279 -41.551 -76.601  0.00  0.00    +0.000 A 
ATOM     22  N   UNL     1     -57.813 -40.292 -76.534  0.00  0.00    +0.000 NA
ATOM     23  O   UNL     1     -57.686 -39.987 -75.193  0.00  0.00    +0.000 OA
ENDBRANCH  17  21
ENDBRANCH  15  17
ENDBRANCH   1  15
BRANCH  13  24
ATOM     24  C   UNL     1     -55.859 -45.212 -77.125  0.00  0.00    +0.000 C 
ATOM     25  O   UNL     1     -57.044 -45.489 -76.946  0.00  0.00    +0.000 OA
BRANCH  24  26
ATOM     26  C   UNL     1     -54.868 -46.331 -77.452  0.00  0.00    +0.000 C 
ATOM     27  C   UNL     1     -54.817 -47.382 -76.347  0.00  0.00    +0.000 C 
ATOM     28  C   UNL     1     -55.174 -46.991 -78.799  0.00  0.00    +0.000 C 
ENDBRANCH  24  26
ENDBRANCH  13  24
TORSDOF 5
ENDMDL
MODEL 6
REMARK VINA RESULT:    -6.627     12.386     14.857
REMARK INTER + INTRA:          -9.323
REMARK INTER:                  -8.185
REMARK INTRA:                  -1.138
REMARK UNBOUND:                -0.760
REMARK  Name = 
REMARK  8 active torsions:
REMARK  status: ('A' for Active; 'I' for Inactive)
REMARK    1  A    between atoms: C_1  and  C_2
REMARK    2  A    between atoms: C_4  and  C_5
REMARK    3  A    between atoms: C_5  and  S_6
REMARK    4  A    between atoms: S_6  and  C_8
REMARK    5  A    between atoms: C_20  and  C_21
REMARK    6  A    between atoms: C_21  and  C_23
REMARK    7  A    between atoms: C_23  and  C_24
REMARK    8  A    between atoms: C_23  and  C_25
REMARK                            x       y       z     vdW  Elec       q    Type
REMARK                         _______ _______ _______ _____ _____    ______ ____
ROOT
ATOM      1  C   UNL     1     -54.283 -41.937 -76.854  0.00  0.00    +0.000 A 
ATOM      2  N   UNL     1     -55.563 -42.126 -77.367  0.00  0.00    +0.000 N 
ATOM      3  C   UNL     1     -55.839 -41.971 -78.739  0.00  0.00    +0.000 A 
ATOM      4  C   UNL     1     -56.974 -42.543 -79.344  0.00  0.00    +0.000 A 
ATOM      5 BR   UNL     1     -58.120 -43.700 -78.371  0.00  0.00    +0.000 Br
ATOM      6  C   UNL     1     -57.266 -42.308 -80.691  0.00  0.00    +0.000 A 
ATOM      7  C   UNL     1     -56.425 -41.503 -81.454  0.00  0.00    +0.000 A 
ATOM      8  C   UNL     1     -55.281 -40.928 -80.870  0.00  0.00    +0.000 A 
ATOM      9 CL   UNL     1     -54.278 -40.009 -81.933  0.00  0.00    +0.000 Cl
ATOM     10  C   UNL     1     -54.991 -41.159 -79.510  0.00  0.00    +0.000 A 
ATOM     11  C   UNL     1     -53.829 -40.573 -78.793  0.00  0.00    +0.000 A 
ATOM     12  O   UNL     1     -53.310 -39.540 -79.205  0.00  0.00    +0.000 OA
ATOM     13  C   UNL     1     -53.320 -41.271 -77.535  0.00  0.00    +0.000 A 
ATOM     14  H   UNL     1     -56.106 -42.849 -76.876  0.00  0.00    +0.000 HD
ENDROOT
BRANCH   1  15
ATOM     15  S   UNL     1     -54.038 -42.871 -75.297  0.00  0.00    +0.000 S 
ATOM     16  O   UNL     1     -52.812 -43.701 -75.564  0.00  0.00    +0.000 OA
BRANCH  15  17
ATOM     17  C   UNL     1     -55.486 -43.981 -75.242  0.00  0.00    +0.000 C 
BRANCH  17  21
ATOM     18  C   UNL     1     -54.785 -48.902 -76.690  0.00  0.00    +0.000 C 
ATOM     19  C   UNL     1     -54.976 -47.450 -76.478  0.00  0.00    +0.000 A 
ATOM     20  C   UNL     1     -55.269 -46.654 -75.394  0.00  0.00    +0.000 A 
ATOM     21  C   UNL     1     -55.274 -45.323 -75.903  0.00  0.00    +0.000 A 
ATOM     22  N   UNL     1     -55.019 -45.339 -77.222  0.00  0.00    +0.000 NA
ATOM     23  O   UNL     1     -54.831 -46.662 -77.574  0.00  0.00    +0.000 OA
ENDBRANCH  17  21
ENDBRANCH  15  17
ENDBRANCH   1  15
BRANCH  13  24
ATOM     24  C   UNL     1     -51.839 -41.161 -77.248  0.00  0.00    +0.000 C 
ATOM     25  O   UNL     1     -51.027 -41.764 -77.948  0.00  0.00    +0.000 OA
BRANCH  24  26
ATOM     26  C   UNL     1     -51.343 -40.354 -76.048  0.00  0.00    +0.000 C 
ATOM     27  C   UNL     1     -49.929 -40.759 -75.639  0.00  0.00    +0.000 C 
ATOM     28  C   UNL     1     -51.409 -38.846 -76.305  0.00  0.00    +0.000 C 
ENDBRANCH  24  26
ENDBRANCH  13  24
TORSDOF 5
ENDMDL
MODEL 7
REMARK VINA RESULT:    -6.605     12.545     14.534
REMARK INTER + INTRA:          -9.295
REMARK INTER:                  -7.674
REMARK INTRA:                  -1.622
REMARK UNBOUND:                -0.760
REMARK  Name = 
REMARK  8 active torsions:
REMARK  status: ('A' for Active; 'I' for Inactive)
REMARK    1  A    between atoms: C_1  and  C_2
REMARK    2  A    between atoms: C_4  and  C_5
REMARK    3  A    between atoms: C_5  and  S_6
REMARK    4  A    between atoms: S_6  and  C_8
REMARK    5  A    between atoms: C_20  and  C_21
REMARK    6  A    between atoms: C_21  and  C_23
REMARK    7  A    between atoms: C_23  and  C_24
REMARK    8  A    between atoms: C_23  and  C_25
REMARK                            x       y       z     vdW  Elec       q    Type
REMARK                         _______ _______ _______ _____ _____    ______ ____
ROOT
ATOM      1  C   UNL     1     -56.357 -42.200 -78.267  0.00  0.00    +0.000 A 
ATOM      2  N   UNL     1     -55.548 -41.096 -78.013  0.00  0.00    +0.000 N 
ATOM      3  C   UNL     1     -54.297 -41.227 -77.379  0.00  0.00    +0.000 A 
ATOM      4  C   UNL     1     -53.299 -40.240 -77.480  0.00  0.00    +0.000 A 
ATOM      5 BR   UNL     1     -53.522 -38.740 -78.619  0.00  0.00    +0.000 Br
ATOM      6  C   UNL     1     -52.096 -40.359 -76.778  0.00  0.00    +0.000 A 
ATOM      7  C   UNL     1     -51.872 -41.469 -75.968  0.00  0.00    +0.000 A 
ATOM      8  C   UNL     1     -52.854 -42.470 -75.859  0.00  0.00    +0.000 A 
ATOM      9 CL   UNL     1     -52.433 -43.831 -74.883  0.00  0.00    +0.000 Cl
ATOM     10  C   UNL     1     -54.070 -42.347 -76.562  0.00  0.00    +0.000 A 
ATOM     11  C   UNL     1     -55.180 -43.331 -76.488  0.00  0.00    +0.000 A 
ATOM     12  O   UNL     1     -55.288 -44.065 -75.511  0.00  0.00    +0.000 OA
ATOM     13  C   UNL     1     -56.183 -43.386 -77.637  0.00  0.00    +0.000 A 
ATOM     14  H   UNL     1     -55.619 -40.355 -78.724  0.00  0.00    +0.000 HD
ENDROOT
BRANCH   1  15
ATOM     15  S   UNL     1     -57.490 -41.893 -79.674  0.00  0.00    +0.000 S 
ATOM     16  O   UNL     1     -58.693 -42.740 -79.359  0.00  0.00    +0.000 OA
BRANCH  15  17
ATOM     17  C   UNL     1     -56.612 -42.638 -81.090  0.00  0.00    +0.000 C 
BRANCH  17  21
ATOM     18  C   UNL     1     -51.439 -42.613 -80.907  0.00  0.00    +0.000 C 
ATOM     19  C   UNL     1     -52.902 -42.422 -81.018  0.00  0.00    +0.000 A 
ATOM     20  C   UNL     1     -54.001 -43.246 -80.934  0.00  0.00    +0.000 A 
ATOM     21  C   UNL     1     -55.123 -42.385 -81.109  0.00  0.00    +0.000 A 
ATOM     22  N   UNL     1     -54.703 -41.124 -81.307  0.00  0.00    +0.000 NA
ATOM     23  O   UNL     1     -53.323 -41.151 -81.245  0.00  0.00    +0.000 OA
ENDBRANCH  17  21
ENDBRANCH  15  17
ENDBRANCH   1  15
BRANCH  13  24
ATOM     24  C   UNL     1     -56.802 -44.734 -77.935  0.00  0.00    +0.000 C 
ATOM     25  O   UNL     1     -57.799 -45.107 -77.318  0.00  0.00    +0.000 OA
BRANCH  24  26
ATOM     26  C   UNL     1     -56.157 -45.671 -78.957  0.00  0.00    +0.000 C 
ATOM     27  C   UNL     1     -55.117 -46.583 -78.311  0.00  0.00    +0.000 C 
ATOM     28  C   UNL     1     -57.200 -46.504 -79.707  0.00  0.00    +0.000 C 
ENDBRANCH  24  26
ENDBRANCH  13  24
TORSDOF 5
ENDMDL
MODEL 8
REMARK VINA RESULT:    -6.388     10.833     13.541
REMARK INTER + INTRA:          -9.015
REMARK INTER:                  -7.767
REMARK INTRA:                  -1.248
REMARK UNBOUND:                -0.760
REMARK  Name = 
REMARK  8 active torsions:
REMARK  status: ('A' for Active; 'I' for Inactive)
REMARK    1  A    between atoms: C_1  and  C_2
REMARK    2  A    between atoms: C_4  and  C_5
REMARK    3  A    between atoms: C_5  and  S_6
REMARK    4  A    between atoms: S_6  and  C_8
REMARK    5  A    between atoms: C_20  and  C_21
REMARK    6  A    between atoms: C_21  and  C_23
REMARK    7  A    between atoms: C_23  and  C_24
REMARK    8  A    between atoms: C_23  and  C_25
REMARK                            x       y       z     vdW  Elec       q    Type
REMARK                         _______ _______ _______ _____ _____    ______ ____
ROOT
ATOM      1  C   UNL     1     -55.759 -42.788 -77.505  0.00  0.00    +0.000 A 
ATOM      2  N   UNL     1     -57.047 -43.138 -77.111  0.00  0.00    +0.000 N 
ATOM      3  C   UNL     1     -57.571 -42.742 -75.865  0.00  0.00    +0.000 A 
ATOM      4  C   UNL     1     -58.955 -42.708 -75.611  0.00  0.00    +0.000 A 
ATOM      5 BR   UNL     1     -60.209 -43.042 -76.994  0.00  0.00    +0.000 Br
ATOM      6  C   UNL     1     -59.446 -42.387 -74.342  0.00  0.00    +0.000 A 
ATOM      7  C   UNL     1     -58.561 -42.089 -73.310  0.00  0.00    +0.000 A 
ATOM      8  C   UNL     1     -57.174 -42.109 -73.545  0.00  0.00    +0.000 A 
ATOM      9 CL   UNL     1     -56.179 -41.653 -72.209  0.00  0.00    +0.000 Cl
ATOM     10  C   UNL     1     -56.679 -42.440 -74.823  0.00  0.00    +0.000 A 
ATOM     11  C   UNL     1     -55.235 -42.521 -75.164  0.00  0.00    +0.000 A 
ATOM     12  O   UNL     1     -54.406 -42.726 -74.282  0.00  0.00    +0.000 OA
ATOM     13  C   UNL     1     -54.820 -42.367 -76.624  0.00  0.00    +0.000 A 
ATOM     14  H   UNL     1     -57.721 -43.193 -77.887  0.00  0.00    +0.000 HD
ENDROOT
BRANCH   1  15
ATOM     15  S   UNL     1     -55.598 -42.766 -79.330  0.00  0.00    +0.000 S 
ATOM     16  O   UNL     1     -57.014 -42.608 -79.814  0.00  0.00    +0.000 OA
BRANCH  15  17
ATOM     17  C   UNL     1     -55.040 -44.459 -79.722  0.00  0.00    +0.000 C 
BRANCH  17  21
ATOM     18  C   UNL     1     -55.485 -48.035 -76.005  0.00  0.00    +0.000 C 
ATOM     19  C   UNL     1     -55.563 -47.032 -77.090  0.00  0.00    +0.000 A 
ATOM     20  C   UNL     1     -54.677 -46.152 -77.669  0.00  0.00    +0.000 A 
ATOM     21  C   UNL     1     -55.420 -45.499 -78.695  0.00  0.00    +0.000 A 
ATOM     22  N   UNL     1     -56.684 -45.958 -78.704  0.00  0.00    +0.000 NA
ATOM     23  O   UNL     1     -56.766 -46.912 -77.708  0.00  0.00    +0.000 OA
ENDBRANCH  17  21
ENDBRANCH  15  17
ENDBRANCH   1  15
BRANCH  13  24
ATOM     24  C   UNL     1     -53.468 -41.743 -76.884  0.00  0.00    +0.000 C 
ATOM     25  O   UNL     1     -52.490 -42.455 -77.111  0.00  0.00    +0.000 OA
BRANCH  24  26
ATOM     26  C   UNL     1     -53.288 -40.226 -76.803  0.00  0.00    +0.000 C 
ATOM     27  C   UNL     1     -51.842 -39.843 -76.498  0.00  0.00    +0.000 C 
ATOM     28  C   UNL     1     -53.765 -39.524 -78.077  0.00  0.00    +0.000 C 
ENDBRANCH  24  26
ENDBRANCH  13  24
TORSDOF 5
ENDMDL
MODEL 9
REMARK VINA RESULT:    -6.361      3.603      4.582
REMARK INTER + INTRA:          -8.980
REMARK INTER:                  -7.800
REMARK INTRA:                  -1.181
REMARK UNBOUND:                -0.760
REMARK  Name = 
REMARK  8 active torsions:
REMARK  status: ('A' for Active; 'I' for Inactive)
REMARK    1  A    between atoms: C_1  and  C_2
REMARK    2  A    between atoms: C_4  and  C_5
REMARK    3  A    between atoms: C_5  and  S_6
REMARK    4  A    between atoms: S_6  and  C_8
REMARK    5  A    between atoms: C_20  and  C_21
REMARK    6  A    between atoms: C_21  and  C_23
REMARK    7  A    between atoms: C_23  and  C_24
REMARK    8  A    between atoms: C_23  and  C_25
REMARK                            x       y       z     vdW  Elec       q    Type
REMARK                         _______ _______ _______ _____ _____    ______ ____
ROOT
ATOM      1  C   UNL     1     -57.150 -40.894 -63.302  0.00  0.00    +0.000 A 
ATOM      2  N   UNL     1     -56.087 -40.325 -63.996  0.00  0.00    +0.000 N 
ATOM      3  C   UNL     1     -55.535 -39.087 -63.614  0.00  0.00    +0.000 A 
ATOM      4  C   UNL     1     -54.241 -38.691 -64.004  0.00  0.00    +0.000 A 
ATOM      5 BR   UNL     1     -53.097 -39.881 -64.938  0.00  0.00    +0.000 Br
ATOM      6  C   UNL     1     -53.747 -37.425 -63.678  0.00  0.00    +0.000 A 
ATOM      7  C   UNL     1     -54.537 -36.538 -62.952  0.00  0.00    +0.000 A 
ATOM      8  C   UNL     1     -55.830 -36.916 -62.546  0.00  0.00    +0.000 A 
ATOM      9 CL   UNL     1     -56.686 -35.760 -61.591  0.00  0.00    +0.000 Cl
ATOM     10  C   UNL     1     -56.331 -38.191 -62.882  0.00  0.00    +0.000 A 
ATOM     11  C   UNL     1     -57.691 -38.672 -62.530  0.00  0.00    +0.000 A 
ATOM     12  O   UNL     1     -58.592 -37.867 -62.314  0.00  0.00    +0.000 OA
ATOM     13  C   UNL     1     -57.939 -40.177 -62.467  0.00  0.00    +0.000 A 
ATOM     14  H   UNL     1     -55.428 -41.012 -64.387  0.00  0.00    +0.000 HD
ENDROOT
BRANCH   1  15
ATOM     15  S   UNL     1     -57.184 -42.716 -63.502  0.00  0.00    +0.000 S 
ATOM     16  O   UNL     1     -55.778 -43.058 -63.913  0.00  0.00    +0.000 OA
BRANCH  15  17
ATOM     17  C   UNL     1     -58.281 -42.959 -64.940  0.00  0.00    +0.000 C 
BRANCH  17  21
ATOM     18  C   UNL     1     -55.940 -43.286 -69.546  0.00  0.00    +0.000 C 
ATOM     19  C   UNL     1     -56.601 -42.987 -68.256  0.00  0.00    +0.000 A 
ATOM     20  C   UNL     1     -57.209 -43.738 -67.276  0.00  0.00    +0.000 A 
ATOM     21  C   UNL     1     -57.605 -42.798 -66.281  0.00  0.00    +0.000 A 
ATOM     22  N   UNL     1     -57.265 -41.556 -66.667  0.00  0.00    +0.000 NA
ATOM     23  O   UNL     1     -56.638 -41.680 -67.892  0.00  0.00    +0.000 OA
ENDBRANCH  17  21
ENDBRANCH  15  17
ENDBRANCH   1  15
BRANCH  13  24
ATOM     24  C   UNL     1     -58.977 -40.654 -61.476  0.00  0.00    +0.000 C 
ATOM     25  O   UNL     1     -58.751 -40.596 -60.268  0.00  0.00    +0.000 OA
BRANCH  24  26
ATOM     26  C   UNL     1     -60.286 -41.272 -61.966  0.00  0.00    +0.000 C 
ATOM     27  C   UNL     1     -61.084 -41.891 -60.821  0.00  0.00    +0.000 C 
ATOM     28  C   UNL     1     -61.147 -40.261 -62.727  0.00  0.00    +0.000 C 
ENDBRANCH  24  26
ENDBRANCH  13  24
TORSDOF 5
ENDMDL
MODEL 10
REMARK VINA RESULT:    -6.254     11.868     15.246
REMARK INTER + INTRA:          -8.842
REMARK INTER:                  -7.819
REMARK INTRA:                  -1.023
REMARK UNBOUND:                -0.760
REMARK  Name = 
REMARK  8 active torsions:
REMARK  status: ('A' for Active; 'I' for Inactive)
REMARK    1  A    between atoms: C_1  and  C_2
REMARK    2  A    between atoms: C_4  and  C_5
REMARK    3  A    between atoms: C_5  and  S_6
REMARK    4  A    between atoms: S_6  and  C_8
REMARK    5  A    between atoms: C_20  and  C_21
REMARK    6  A    between atoms: C_21  and  C_23
REMARK    7  A    between atoms: C_23  and  C_24
REMARK    8  A    between atoms: C_23  and  C_25
REMARK                            x       y       z     vdW  Elec       q    Type
REMARK                         _______ _______ _______ _____ _____    ______ ____
ROOT
ATOM      1  C   UNL     1     -66.031 -48.208 -56.008  0.00  0.00    +0.000 A 
ATOM      2  N   UNL     1     -66.604 -47.841 -57.222  0.00  0.00    +0.000 N 
ATOM      3  C   UNL     1     -67.958 -48.101 -57.509  0.00  0.00    +0.000 A 
ATOM      4  C   UNL     1     -68.660 -47.400 -58.507  0.00  0.00    +0.000 A 
ATOM      5 BR   UNL     1     -67.863 -45.940 -59.419  0.00  0.00    +0.000 Br
ATOM      6  C   UNL     1     -69.980 -47.732 -58.825  0.00  0.00    +0.000 A 
ATOM      7  C   UNL     1     -70.619 -48.766 -58.147  0.00  0.00    +0.000 A 
ATOM      8  C   UNL     1     -69.937 -49.475 -57.142  0.00  0.00    +0.000 A 
ATOM      9 CL   UNL     1     -70.855 -50.687 -56.323  0.00  0.00    +0.000 Cl
ATOM     10  C   UNL     1     -68.603 -49.145 -56.826  0.00  0.00    +0.000 A 
ATOM     11  C   UNL     1     -67.787 -49.853 -55.805  0.00  0.00    +0.000 A 
ATOM     12  O   UNL     1     -68.062 -51.007 -55.491  0.00  0.00    +0.000 OA
ATOM     13  C   UNL     1     -66.601 -49.121 -55.185  0.00  0.00    +0.000 A 
ATOM     14  H   UNL     1     -66.216 -46.975 -57.622  0.00  0.00    +0.000 HD
ENDROOT
BRANCH   1  15
ATOM     15  S   UNL     1     -64.583 -47.161 -55.604  0.00  0.00    +0.000 S 
ATOM     16  O   UNL     1     -64.990 -46.458 -54.338  0.00  0.00    +0.000 OA
BRANCH  15  17
ATOM     17  C   UNL     1     -64.557 -45.940 -56.960  0.00  0.00    +0.000 C 
BRANCH  17  21
ATOM     18  C   UNL     1     -61.939 -47.074 -61.280  0.00  0.00    +0.000 C 
ATOM     19  C   UNL     1     -62.502 -46.745 -59.952  0.00  0.00    +0.000 A 
ATOM     20  C   UNL     1     -63.753 -46.424 -59.477  0.00  0.00    +0.000 A 
ATOM     21  C   UNL     1     -63.585 -46.257 -58.072  0.00  0.00    +0.000 A 
ATOM     22  N   UNL     1     -62.296 -46.449 -57.743  0.00  0.00    +0.000 NA
ATOM     23  O   UNL     1     -61.628 -46.755 -58.913  0.00  0.00    +0.000 OA
ENDBRANCH  17  21
ENDBRANCH  15  17
ENDBRANCH   1  15
BRANCH  13  24
ATOM     24  C   UNL     1     -66.255 -49.476 -53.756  0.00  0.00    +0.000 C 
ATOM     25  O   UNL     1     -66.906 -49.002 -52.826  0.00  0.00    +0.000 OA
BRANCH  24  26
ATOM     26  C   UNL     1     -65.054 -50.373 -53.452  0.00  0.00    +0.000 C 
ATOM     27  C   UNL     1     -63.940 -49.606 -52.744  0.00  0.00    +0.000 C 
ATOM     28  C   UNL     1     -65.453 -51.605 -52.635  0.00  0.00    +0.000 C 
ENDBRANCH  24  26
ENDBRANCH  13  24
TORSDOF 5
ENDMDL
MODEL 11
REMARK VINA RESULT:    -6.075     12.045     15.009
REMARK INTER + INTRA:          -8.610
REMARK INTER:                  -7.843
REMARK INTRA:                  -0.768
REMARK UNBOUND:                -0.760
REMARK  Name = 
REMARK  8 active torsions:
REMARK  status: ('A' for Active; 'I' for Inactive)
REMARK    1  A    between atoms: C_1  and  C_2
REMARK    2  A    between atoms: C_4  and  C_5
REMARK    3  A    between atoms: C_5  and  S_6
REMARK    4  A    between atoms: S_6  and  C_8
REMARK    5  A    between atoms: C_20  and  C_21
REMARK    6  A    between atoms: C_21  and  C_23
REMARK    7  A    between atoms: C_23  and  C_24
REMARK    8  A    between atoms: C_23  and  C_25
REMARK                            x       y       z     vdW  Elec       q    Type
REMARK                         _______ _______ _______ _____ _____    ______ ____
ROOT
ATOM      1  C   UNL     1     -54.178 -42.508 -77.908  0.00  0.00    +0.000 A 
ATOM      2  N   UNL     1     -55.521 -42.531 -78.274  0.00  0.00    +0.000 N 
ATOM      3  C   UNL     1     -56.522 -41.993 -77.443  0.00  0.00    +0.000 A 
ATOM      4  C   UNL     1     -57.788 -41.624 -77.936  0.00  0.00    +0.000 A 
ATOM      5 BR   UNL     1     -58.164 -41.679 -79.795  0.00  0.00    +0.000 Br
ATOM      6  C   UNL     1     -58.789 -41.165 -77.076  0.00  0.00    +0.000 A 
ATOM      7  C   UNL     1     -58.539 -41.064 -75.711  0.00  0.00    +0.000 A 
ATOM      8  C   UNL     1     -57.279 -41.421 -75.198  0.00  0.00    +0.000 A 
ATOM      9 CL   UNL     1     -57.065 -41.185 -73.501  0.00  0.00    +0.000 Cl
ATOM     10  C   UNL     1     -56.271 -41.890 -76.065  0.00  0.00    +0.000 A 
ATOM     11  C   UNL     1     -54.921 -42.322 -75.619  0.00  0.00    +0.000 A 
ATOM     12  O   UNL     1     -54.746 -42.699 -74.464  0.00  0.00    +0.000 OA
ATOM     13  C   UNL     1     -53.779 -42.304 -76.630  0.00  0.00    +0.000 A 
ATOM     14  H   UNL     1     -55.679 -42.442 -79.287  0.00  0.00    +0.000 HD
ENDROOT
BRANCH   1  15
ATOM     15  S   UNL     1     -53.081 -42.568 -79.375  0.00  0.00    +0.000 S 
ATOM     16  O   UNL     1     -52.896 -41.121 -79.744  0.00  0.00    +0.000 OA
BRANCH  15  17
ATOM     17  C   UNL     1     -54.124 -43.359 -80.646  0.00  0.00    +0.000 C 
BRANCH  17  21
ATOM     18  C   UNL     1     -55.735 -40.234 -84.447  0.00  0.00    +0.000 C 
ATOM     19  C   UNL     1     -55.106 -41.158 -83.478  0.00  0.00    +0.000 A 
ATOM     20  C   UNL     1     -55.396 -41.573 -82.198  0.00  0.00    +0.000 A 
ATOM     21  C   UNL     1     -54.374 -42.511 -81.871  0.00  0.00    +0.000 A 
ATOM     22  N   UNL     1     -53.516 -42.625 -82.900  0.00  0.00    +0.000 NA
ATOM     23  O   UNL     1     -53.977 -41.786 -83.896  0.00  0.00    +0.000 OA
ENDBRANCH  17  21
ENDBRANCH  15  17
ENDBRANCH   1  15
BRANCH  13  24
ATOM     24  C   UNL     1     -52.394 -42.027 -76.088  0.00  0.00    +0.000 C 
ATOM     25  O   UNL     1     -51.785 -42.902 -75.473  0.00  0.00    +0.000 OA
BRANCH  24  26
ATOM     26  C   UNL     1     -51.767 -40.641 -76.240  0.00  0.00    +0.000 C 
ATOM     27  C   UNL     1     -50.427 -40.702 -76.968  0.00  0.00    +0.000 C 
ATOM     28  C   UNL     1     -52.710 -39.661 -76.944  0.00  0.00    +0.000 C 
ENDBRANCH  24  26
ENDBRANCH  13  24
TORSDOF 5
ENDMDL
MODEL 12
REMARK VINA RESULT:    -6.040     13.550     16.674
REMARK INTER + INTRA:          -8.565
REMARK INTER:                  -7.641
REMARK INTRA:                  -0.924
REMARK UNBOUND:                -0.760
REMARK  Name = 
REMARK  8 active torsions:
REMARK  status: ('A' for Active; 'I' for Inactive)
REMARK    1  A    between atoms: C_1  and  C_2
REMARK    2  A    between atoms: C_4  and  C_5
REMARK    3  A    between atoms: C_5  and  S_6
REMARK    4  A    between atoms: S_6  and  C_8
REMARK    5  A    between atoms: C_20  and  C_21
REMARK    6  A    between atoms: C_21  and  C_23
REMARK    7  A    between atoms: C_23  and  C_24
REMARK    8  A    between atoms: C_23  and  C_25
REMARK                            x       y       z     vdW  Elec       q    Type
REMARK                         _______ _______ _______ _____ _____    ______ ____
ROOT
ATOM      1  C   UNL     1     -66.937 -49.246 -54.481  0.00  0.00    +0.000 A 
ATOM      2  N   UNL     1     -67.514 -50.277 -55.216  0.00  0.00    +0.000 N 
ATOM      3  C   UNL     1     -67.588 -51.590 -54.713  0.00  0.00    +0.000 A 
ATOM      4  C   UNL     1     -68.503 -52.534 -55.216  0.00  0.00    +0.000 A 
ATOM      5 BR   UNL     1     -69.810 -52.039 -56.499  0.00  0.00    +0.000 Br
ATOM      6  C   UNL     1     -68.503 -53.853 -54.754  0.00  0.00    +0.000 A 
ATOM      7  C   UNL     1     -67.591 -54.247 -53.779  0.00  0.00    +0.000 A 
ATOM      8  C   UNL     1     -66.673 -53.317 -53.257  0.00  0.00    +0.000 A 
ATOM      9 CL   UNL     1     -65.641 -53.903 -52.003  0.00  0.00    +0.000 Cl
ATOM     10  C   UNL     1     -66.669 -51.988 -53.729  0.00  0.00    +0.000 A 
ATOM     11  C   UNL     1     -65.721 -50.942 -53.267  0.00  0.00    +0.000 A 
ATOM     12  O   UNL     1     -64.638 -51.262 -52.786  0.00  0.00    +0.000 OA
ATOM     13  C   UNL     1     -66.117 -49.477 -53.427  0.00  0.00    +0.000 A 
ATOM     14  H   UNL     1     -68.297 -49.976 -55.812  0.00  0.00    +0.000 HD
ENDROOT
BRANCH   1  15
ATOM     15  S   UNL     1     -67.597 -47.611 -54.982  0.00  0.00    +0.000 S 
ATOM     16  O   UNL     1     -68.900 -47.507 -54.238  0.00  0.00    +0.000 OA
BRANCH  15  17
ATOM     17  C   UNL     1     -67.960 -47.833 -56.757  0.00  0.00    +0.000 C 
BRANCH  17  21
ATOM     18  C   UNL     1     -64.408 -47.410 -60.499  0.00  0.00    +0.000 C 
ATOM     19  C   UNL     1     -65.292 -47.422 -59.312  0.00  0.00    +0.000 A 
ATOM     20  C   UNL     1     -66.578 -47.840 -59.060  0.00  0.00    +0.000 A 
ATOM     21  C   UNL     1     -66.788 -47.579 -57.675  0.00  0.00    +0.000 A 
ATOM     22  N   UNL     1     -65.687 -47.016 -57.146  0.00  0.00    +0.000 NA
ATOM     23  O   UNL     1     -64.760 -46.925 -58.166  0.00  0.00    +0.000 OA
ENDBRANCH  17  21
ENDBRANCH  15  17
ENDBRANCH   1  15
BRANCH  13  24
ATOM     24  C   UNL     1     -65.586 -48.512 -52.391  0.00  0.00    +0.000 C 
ATOM     25  O   UNL     1     -66.274 -48.212 -51.415  0.00  0.00    +0.000 OA
BRANCH  24  26
ATOM     26  C   UNL     1     -64.220 -47.851 -52.578  0.00  0.00    +0.000 C 
ATOM     27  C   UNL     1     -64.284 -46.691 -53.568  0.00  0.00    +0.000 C 
ATOM     28  C   UNL     1     -63.624 -47.382 -51.248  0.00  0.00    +0.000 C 
ENDBRANCH  24  26
ENDBRANCH  13  24
TORSDOF 5
ENDMDL
MODEL 13
REMARK VINA RESULT:    -6.038     11.311     14.571
REMARK INTER + INTRA:          -8.562
REMARK INTER:                  -7.567
REMARK INTRA:                  -0.995
REMARK UNBOUND:                -0.760
REMARK  Name = 
REMARK  8 active torsions:
REMARK  status: ('A' for Active; 'I' for Inactive)
REMARK    1  A    between atoms: C_1  and  C_2
REMARK    2  A    between atoms: C_4  and  C_5
REMARK    3  A    between atoms: C_5  and  S_6
REMARK    4  A    between atoms: S_6  and  C_8
REMARK    5  A    between atoms: C_20  and  C_21
REMARK    6  A    between atoms: C_21  and  C_23
REMARK    7  A    between atoms: C_23  and  C_24
REMARK    8  A    between atoms: C_23  and  C_25
REMARK                            x       y       z     vdW  Elec       q    Type
REMARK                         _______ _______ _______ _____ _____    ______ ____
ROOT
ATOM      1  C   UNL     1     -54.821 -42.043 -78.034  0.00  0.00    +0.000 A 
ATOM      2  N   UNL     1     -56.144 -42.429 -77.842  0.00  0.00    +0.000 N 
ATOM      3  C   UNL     1     -56.768 -42.328 -76.583  0.00  0.00    +0.000 A 
ATOM      4  C   UNL     1     -58.168 -42.306 -76.441  0.00  0.00    +0.000 A 
ATOM      5 BR   UNL     1     -59.302 -42.245 -77.961  0.00  0.00    +0.000 Br
ATOM      6  C   UNL     1     -58.762 -42.284 -75.176  0.00  0.00    +0.000 A 
ATOM      7  C   UNL     1     -57.965 -42.279 -74.035  0.00  0.00    +0.000 A 
ATOM      8  C   UNL     1     -56.564 -42.294 -74.155  0.00  0.00    +0.000 A 
ATOM      9 CL   UNL     1     -55.682 -42.214 -72.673  0.00  0.00    +0.000 Cl
ATOM     10  C   UNL     1     -55.964 -42.323 -75.431  0.00  0.00    +0.000 A 
ATOM     11  C   UNL     1     -54.498 -42.373 -75.664  0.00  0.00    +0.000 A 
ATOM     12  O   UNL     1     -53.753 -42.818 -74.796  0.00  0.00    +0.000 OA
ATOM     13  C   UNL     1     -53.955 -41.884 -77.004  0.00  0.00    +0.000 A 
ATOM     14  H   UNL     1     -56.748 -42.268 -78.660  0.00  0.00    +0.000 HD
ENDROOT
BRANCH   1  15
ATOM     15  S   UNL     1     -54.500 -41.584 -79.779  0.00  0.00    +0.000 S 
ATOM     16  O   UNL     1     -54.987 -40.163 -79.872  0.00  0.00    +0.000 OA
BRANCH  15  17
ATOM     17  C   UNL     1     -55.651 -42.650 -80.710  0.00  0.00    +0.000 C 
BRANCH  17  21
ATOM     18  C   UNL     1     -59.679 -40.428 -83.086  0.00  0.00    +0.000 C 
ATOM     19  C   UNL     1     -58.410 -40.969 -82.550  0.00  0.00    +0.000 A 
ATOM     20  C   UNL     1     -58.055 -41.696 -81.436  0.00  0.00    +0.000 A 
ATOM     21  C   UNL     1     -56.650 -41.903 -81.562  0.00  0.00    +0.000 A 
ATOM     22  N   UNL     1     -56.201 -41.310 -82.681  0.00  0.00    +0.000 NA
ATOM     23  O   UNL     1     -57.299 -40.734 -83.293  0.00  0.00    +0.000 OA
ENDBRANCH  17  21
ENDBRANCH  15  17
ENDBRANCH   1  15
BRANCH  13  24
ATOM     24  C   UNL     1     -52.575 -41.267 -76.993  0.00  0.00    +0.000 C 
ATOM     25  O   UNL     1     -51.603 -41.917 -77.375  0.00  0.00    +0.000 OA
BRANCH  24  26
ATOM     26  C   UNL     1     -52.364 -39.855 -76.445  0.00  0.00    +0.000 C 
ATOM     27  C   UNL     1     -50.900 -39.593 -76.102  0.00  0.00    +0.000 C 
ATOM     28  C   UNL     1     -52.883 -38.784 -77.409  0.00  0.00    +0.000 C 
ENDBRANCH  24  26
ENDBRANCH  13  24
TORSDOF 5
ENDMDL
MODEL 14
REMARK VINA RESULT:    -5.820     17.546     19.411
REMARK INTER + INTRA:          -8.280
REMARK INTER:                  -6.958
REMARK INTRA:                  -1.323
REMARK UNBOUND:                -0.760
REMARK  Name = 
REMARK  8 active torsions:
REMARK  status: ('A' for Active; 'I' for Inactive)
REMARK    1  A    between atoms: C_1  and  C_2
REMARK    2  A    between atoms: C_4  and  C_5
REMARK    3  A    between atoms: C_5  and  S_6
REMARK    4  A    between atoms: S_6  and  C_8
REMARK    5  A    between atoms: C_20  and  C_21
REMARK    6  A    between atoms: C_21  and  C_23
REMARK    7  A    between atoms: C_23  and  C_24
REMARK    8  A    between atoms: C_23  and  C_25
REMARK                            x       y       z     vdW  Elec       q    Type
REMARK                         _______ _______ _______ _____ _____    ______ ____
ROOT
ATOM      1  C   UNL     1     -47.819 -24.832 -62.032  0.00  0.00    +0.000 A 
ATOM      2  N   UNL     1     -47.676 -24.872 -63.416  0.00  0.00    +0.000 N 
ATOM      3  C   UNL     1     -48.429 -24.033 -64.261  0.00  0.00    +0.000 A 
ATOM      4  C   UNL     1     -48.030 -23.747 -65.581  0.00  0.00    +0.000 A 
ATOM      5 BR   UNL     1     -46.360 -24.349 -66.248  0.00  0.00    +0.000 Br
ATOM      6  C   UNL     1     -48.835 -22.976 -66.424  0.00  0.00    +0.000 A 
ATOM      7  C   UNL     1     -50.048 -22.475 -65.959  0.00  0.00    +0.000 A 
ATOM      8  C   UNL     1     -50.461 -22.743 -64.641  0.00  0.00    +0.000 A 
ATOM      9 CL   UNL     1     -51.947 -22.009 -64.155  0.00  0.00    +0.000 Cl
ATOM     10  C   UNL     1     -49.652 -23.527 -63.793  0.00  0.00    +0.000 A 
ATOM     11  C   UNL     1     -50.013 -23.893 -62.399  0.00  0.00    +0.000 A 
ATOM     12  O   UNL     1     -51.190 -23.906 -62.052  0.00  0.00    +0.000 OA
ATOM     13  C   UNL     1     -48.895 -24.270 -61.431  0.00  0.00    +0.000 A 
ATOM     14  H   UNL     1     -46.720 -25.090 -63.730  0.00  0.00    +0.000 HD
ENDROOT
BRANCH   1  15
ATOM     15  S   UNL     1     -46.306 -25.419 -61.183  0.00  0.00    +0.000 S 
ATOM     16  O   UNL     1     -45.210 -24.574 -61.775  0.00  0.00    +0.000 OA
BRANCH  15  17
ATOM     17  C   UNL     1     -46.115 -27.127 -61.798  0.00  0.00    +0.000 C 
BRANCH  17  21
ATOM     18  C   UNL     1     -50.042 -30.294 -60.637  0.00  0.00    +0.000 C 
ATOM     19  C   UNL     1     -49.023 -29.349 -61.144  0.00  0.00    +0.000 A 
ATOM     20  C   UNL     1     -47.878 -28.783 -60.631  0.00  0.00    +0.000 A 
ATOM     21  C   UNL     1     -47.359 -27.977 -61.685  0.00  0.00    +0.000 A 
ATOM     22  N   UNL     1     -48.169 -28.050 -62.755  0.00  0.00    +0.000 NA
ATOM     23  O   UNL     1     -49.199 -28.905 -62.415  0.00  0.00    +0.000 OA
ENDBRANCH  17  21
ENDBRANCH  15  17
ENDBRANCH   1  15
BRANCH  13  24
ATOM     24  C   UNL     1     -49.118 -23.937 -59.973  0.00  0.00    +0.000 C 
ATOM     25  O   UNL     1     -49.082 -22.768 -59.592  0.00  0.00    +0.000 OA
BRANCH  24  26
ATOM     26  C   UNL     1     -49.323 -25.054 -58.948  0.00  0.00    +0.000 C 
ATOM     27  C   UNL     1     -49.889 -24.519 -57.634  0.00  0.00    +0.000 C 
ATOM     28  C   UNL     1     -50.213 -26.174 -59.493  0.00  0.00    +0.000 C 
ENDBRANCH  24  26
ENDBRANCH  13  24
TORSDOF 5
ENDMDL
MODEL 15
REMARK VINA RESULT:    -5.800     12.899     16.861
REMARK INTER + INTRA:          -8.255
REMARK INTER:                  -7.457
REMARK INTRA:                  -0.798
REMARK UNBOUND:                -0.760
REMARK  Name = 
REMARK  8 active torsions:
REMARK  status: ('A' for Active; 'I' for Inactive)
REMARK    1  A    between atoms: C_1  and  C_2
REMARK    2  A    between atoms: C_4  and  C_5
REMARK    3  A    between atoms: C_5  and  S_6
REMARK    4  A    between atoms: S_6  and  C_8
REMARK    5  A    between atoms: C_20  and  C_21
REMARK    6  A    between atoms: C_21  and  C_23
REMARK    7  A    between atoms: C_23  and  C_24
REMARK    8  A    between atoms: C_23  and  C_25
REMARK                            x       y       z     vdW  Elec       q    Type
REMARK                         _______ _______ _______ _____ _____    ______ ____
ROOT
ATOM      1  C   UNL     1     -53.637 -42.467 -80.038  0.00  0.00    +0.000 A 
ATOM      2  N   UNL     1     -53.151 -41.916 -78.856  0.00  0.00    +0.000 N 
ATOM      3  C   UNL     1     -53.267 -42.591 -77.625  0.00  0.00    +0.000 A 
ATOM      4  C   UNL     1     -52.449 -42.281 -76.522  0.00  0.00    +0.000 A 
ATOM      5 BR   UNL     1     -51.023 -41.040 -76.682  0.00  0.00    +0.000 Br
ATOM      6  C   UNL     1     -52.636 -42.911 -75.288  0.00  0.00    +0.000 A 
ATOM      7  C   UNL     1     -53.641 -43.863 -75.140  0.00  0.00    +0.000 A 
ATOM      8  C   UNL     1     -54.465 -44.192 -76.232  0.00  0.00    +0.000 A 
ATOM      9 CL   UNL     1     -55.627 -45.437 -75.948  0.00  0.00    +0.000 Cl
ATOM     10  C   UNL     1     -54.280 -43.551 -77.475  0.00  0.00    +0.000 A 
ATOM     11  C   UNL     1     -55.116 -43.804 -78.677  0.00  0.00    +0.000 A 
ATOM     12  O   UNL     1     -56.254 -44.246 -78.552  0.00  0.00    +0.000 OA
ATOM     13  C   UNL     1     -54.534 -43.481 -80.050  0.00  0.00    +0.000 A 
ATOM     14  H   UNL     1     -52.306 -41.343 -78.979  0.00  0.00    +0.000 HD
ENDROOT
BRANCH   1  15
ATOM     15  S   UNL     1     -52.754 -41.804 -81.500  0.00  0.00    +0.000 S 
ATOM     16  O   UNL     1     -53.723 -42.016 -82.632  0.00  0.00    +0.000 OA
BRANCH  15  17
ATOM     17  C   UNL     1     -51.359 -42.961 -81.709  0.00  0.00    +0.000 C 
BRANCH  17  21
ATOM     18  C   UNL     1     -49.729 -44.198 -86.465  0.00  0.00    +0.000 C 
ATOM     19  C   UNL     1     -50.150 -43.649 -85.157  0.00  0.00    +0.000 A 
ATOM     20  C   UNL     1     -50.763 -44.162 -84.037  0.00  0.00    +0.000 A 
ATOM     21  C   UNL     1     -50.840 -43.071 -83.124  0.00  0.00    +0.000 A 
ATOM     22  N   UNL     1     -50.317 -41.968 -83.687  0.00  0.00    +0.000 NA
ATOM     23  O   UNL     1     -49.887 -42.333 -84.949  0.00  0.00    +0.000 OA
ENDBRANCH  17  21
ENDBRANCH  15  17
ENDBRANCH   1  15
BRANCH  13  24
ATOM     24  C   UNL     1     -54.998 -44.343 -81.203  0.00  0.00    +0.000 C 
ATOM     25  O   UNL     1     -56.104 -44.157 -81.710  0.00  0.00    +0.000 OA
BRANCH  24  26
ATOM     26  C   UNL     1     -54.126 -45.494 -81.707  0.00  0.00    +0.000 C 
ATOM     27  C   UNL     1     -54.471 -46.810 -81.014  0.00  0.00    +0.000 C 
ATOM     28  C   UNL     1     -54.213 -45.655 -83.227  0.00  0.00    +0.000 C 
ENDBRANCH  24  26
ENDBRANCH  13  24
TORSDOF 5
ENDMDL
MODEL 16
REMARK VINA RESULT:    -5.775      9.302     12.651
REMARK INTER + INTRA:          -8.222
REMARK INTER:                  -7.449
REMARK INTRA:                  -0.773
REMARK UNBOUND:                -0.760
REMARK  Name = 
REMARK  8 active torsions:
REMARK  status: ('A' for Active; 'I' for Inactive)
REMARK    1  A    between atoms: C_1  and  C_2
REMARK    2  A    between atoms: C_4  and  C_5
REMARK    3  A    between atoms: C_5  and  S_6
REMARK    4  A    between atoms: S_6  and  C_8
REMARK    5  A    between atoms: C_20  and  C_21
REMARK    6  A    between atoms: C_21  and  C_23
REMARK    7  A    between atoms: C_23  and  C_24
REMARK    8  A    between atoms: C_23  and  C_25
REMARK                            x       y       z     vdW  Elec       q    Type
REMARK                         _______ _______ _______ _____ _____    ______ ____
ROOT
ATOM      1  C   UNL     1     -63.869 -46.315 -57.525  0.00  0.00    +0.000 A 
ATOM      2  N   UNL     1     -62.863 -45.598 -56.884  0.00  0.00    +0.000 N 
ATOM      3  C   UNL     1     -61.961 -44.789 -57.601  0.00  0.00    +0.000 A 
ATOM      4  C   UNL     1     -61.229 -43.756 -56.986  0.00  0.00    +0.000 A 
ATOM      5 BR   UNL     1     -61.539 -43.285 -55.174  0.00  0.00    +0.000 Br
ATOM      6  C   UNL     1     -60.283 -43.019 -57.704  0.00  0.00    +0.000 A 
ATOM      7  C   UNL     1     -60.058 -43.301 -59.048  0.00  0.00    +0.000 A 
ATOM      8  C   UNL     1     -60.784 -44.324 -59.684  0.00  0.00    +0.000 A 
ATOM      9 CL   UNL     1     -60.470 -44.532 -61.369  0.00  0.00    +0.000 Cl
ATOM     10  C   UNL     1     -61.734 -45.072 -58.958  0.00  0.00    +0.000 A 
ATOM     11  C   UNL     1     -62.527 -46.192 -59.527  0.00  0.00    +0.000 A 
ATOM     12  O   UNL     1     -62.111 -46.804 -60.507  0.00  0.00    +0.000 OA
ATOM     13  C   UNL     1     -63.844 -46.568 -58.855  0.00  0.00    +0.000 A 
ATOM     14  H   UNL     1     -63.122 -45.264 -55.945  0.00  0.00    +0.000 HD
ENDROOT
BRANCH   1  15
ATOM     15  S   UNL     1     -65.275 -46.654 -56.399  0.00  0.00    +0.000 S 
ATOM     16  O   UNL     1     -65.968 -45.323 -56.279  0.00  0.00    +0.000 OA
BRANCH  15  17
ATOM     17  C   UNL     1     -64.459 -47.025 -54.809  0.00  0.00    +0.000 C 
BRANCH  17  21
ATOM     18  C   UNL     1     -64.933 -51.526 -52.297  0.00  0.00    +0.000 C 
ATOM     19  C   UNL     1     -64.964 -50.299 -53.122  0.00  0.00    +0.000 A 
ATOM     20  C   UNL     1     -64.276 -49.107 -53.123  0.00  0.00    +0.000 A 
ATOM     21  C   UNL     1     -64.800 -48.377 -54.229  0.00  0.00    +0.000 A 
ATOM     22  N   UNL     1     -65.762 -49.095 -54.834  0.00  0.00    +0.000 NA
ATOM     23  O   UNL     1     -65.857 -50.290 -54.145  0.00  0.00    +0.000 OA
ENDBRANCH  17  21
ENDBRANCH  15  17
ENDBRANCH   1  15
BRANCH  13  24
ATOM     24  C   UNL     1     -64.930 -47.122 -59.750  0.00  0.00    +0.000 C 
ATOM     25  O   UNL     1     -64.836 -48.261 -60.205  0.00  0.00    +0.000 OA
BRANCH  24  26
ATOM     26  C   UNL     1     -66.120 -46.250 -60.151  0.00  0.00    +0.000 C 
ATOM     27  C   UNL     1     -67.423 -46.752 -59.534  0.00  0.00    +0.000 C 
ATOM     28  C   UNL     1     -65.896 -44.778 -59.795  0.00  0.00    +0.000 C 
ENDBRANCH  24  26
ENDBRANCH  13  24
TORSDOF 5
ENDMDL
MODEL 17
REMARK VINA RESULT:    -5.688      9.739     13.566
REMARK INTER + INTRA:          -8.110
REMARK INTER:                  -7.239
REMARK INTRA:                  -0.871
REMARK UNBOUND:                -0.760
REMARK  Name = 
REMARK  8 active torsions:
REMARK  status: ('A' for Active; 'I' for Inactive)
REMARK    1  A    between atoms: C_1  and  C_2
REMARK    2  A    between atoms: C_4  and  C_5
REMARK    3  A    between atoms: C_5  and  S_6
REMARK    4  A    between atoms: S_6  and  C_8
REMARK    5  A    between atoms: C_20  and  C_21
REMARK    6  A    between atoms: C_21  and  C_23
REMARK    7  A    between atoms: C_23  and  C_24
REMARK    8  A    between atoms: C_23  and  C_25
REMARK                            x       y       z     vdW  Elec       q    Type
REMARK                         _______ _______ _______ _____ _____    ______ ____
ROOT
ATOM      1  C   UNL     1     -64.490 -45.601 -57.719  0.00  0.00    +0.000 A 
ATOM      2  N   UNL     1     -65.574 -44.729 -57.677  0.00  0.00    +0.000 N 
ATOM      3  C   UNL     1     -65.798 -43.779 -58.692  0.00  0.00    +0.000 A 
ATOM      4  C   UNL     1     -67.059 -43.191 -58.903  0.00  0.00    +0.000 A 
ATOM      5 BR   UNL     1     -68.580 -43.769 -57.928  0.00  0.00    +0.000 Br
ATOM      6  C   UNL     1     -67.235 -42.193 -59.866  0.00  0.00    +0.000 A 
ATOM      7  C   UNL     1     -66.155 -41.773 -60.636  0.00  0.00    +0.000 A 
ATOM      8  C   UNL     1     -64.888 -42.354 -60.447  0.00  0.00    +0.000 A 
ATOM      9 CL   UNL     1     -63.643 -41.803 -61.509  0.00  0.00    +0.000 Cl
ATOM     10  C   UNL     1     -64.708 -43.355 -59.470  0.00  0.00    +0.000 A 
ATOM     11  C   UNL     1     -63.407 -44.006 -59.171  0.00  0.00    +0.000 A 
ATOM     12  O   UNL     1     -62.356 -43.430 -59.438  0.00  0.00    +0.000 OA
ATOM     13  C   UNL     1     -63.414 -45.382 -58.511  0.00  0.00    +0.000 A 
ATOM     14  H   UNL     1     -66.415 -45.131 -57.240  0.00  0.00    +0.000 HD
ENDROOT
BRANCH   1  15
ATOM     15  S   UNL     1     -64.819 -47.129 -56.762  0.00  0.00    +0.000 S 
ATOM     16  O   UNL     1     -66.321 -47.205 -56.712  0.00  0.00    +0.000 OA
BRANCH  15  17
ATOM     17  C   UNL     1     -64.206 -46.718 -55.093  0.00  0.00    +0.000 C 
BRANCH  17  21
ATOM     18  C   UNL     1     -64.699 -51.095 -52.373  0.00  0.00    +0.000 C 
ATOM     19  C   UNL     1     -64.510 -49.754 -52.970  0.00  0.00    +0.000 A 
ATOM     20  C   UNL     1     -64.488 -49.253 -54.251  0.00  0.00    +0.000 A 
ATOM     21  C   UNL     1     -64.288 -47.850 -54.097  0.00  0.00    +0.000 A 
ATOM     22  N   UNL     1     -64.177 -47.548 -52.792  0.00  0.00    +0.000 NA
ATOM     23  O   UNL     1     -64.319 -48.733 -52.096  0.00  0.00    +0.000 OA
ENDBRANCH  17  21
ENDBRANCH  15  17
ENDBRANCH   1  15
BRANCH  13  24
ATOM     24  C   UNL     1     -62.267 -46.306 -58.855  0.00  0.00    +0.000 C 
ATOM     25  O   UNL     1     -61.312 -46.420 -58.088  0.00  0.00    +0.000 OA
BRANCH  24  26
ATOM     26  C   UNL     1     -62.252 -47.056 -60.187  0.00  0.00    +0.000 C 
ATOM     27  C   UNL     1     -63.664 -47.355 -60.685  0.00  0.00    +0.000 C 
ATOM     28  C   UNL     1     -61.460 -46.303 -61.259  0.00  0.00    +0.000 C 
ENDBRANCH  24  26
ENDBRANCH  13  24
TORSDOF 5
ENDMDL
MODEL 18
REMARK VINA RESULT:    -5.678     17.726     19.645
REMARK INTER + INTRA:          -8.097
REMARK INTER:                  -7.192
REMARK INTRA:                  -0.905
REMARK UNBOUND:                -0.760
REMARK  Name = 
REMARK  8 active torsions:
REMARK  status: ('A' for Active; 'I' for Inactive)
REMARK    1  A    between atoms: C_1  and  C_2
REMARK    2  A    between atoms: C_4  and  C_5
REMARK    3  A    between atoms: C_5  and  S_6
REMARK    4  A    between atoms: S_6  and  C_8
REMARK    5  A    between atoms: C_20  and  C_21
REMARK    6  A    between atoms: C_21  and  C_23
REMARK    7  A    between atoms: C_23  and  C_24
REMARK    8  A    between atoms: C_23  and  C_25
REMARK                            x       y       z     vdW  Elec       q    Type
REMARK                         _______ _______ _______ _____ _____    ______ ____
ROOT
ATOM      1  C   UNL     1     -47.780 -25.370 -62.547  0.00  0.00    +0.000 A 
ATOM      2  N   UNL     1     -47.704 -25.182 -63.924  0.00  0.00    +0.000 N 
ATOM      3  C   UNL     1     -48.441 -24.173 -64.574  0.00  0.00    +0.000 A 
ATOM      4  C   UNL     1     -48.088 -23.688 -65.847  0.00  0.00    +0.000 A 
ATOM      5 BR   UNL     1     -46.491 -24.257 -66.699  0.00  0.00    +0.000 Br
ATOM      6  C   UNL     1     -48.881 -22.742 -66.503  0.00  0.00    +0.000 A 
ATOM      7  C   UNL     1     -50.037 -22.263 -65.893  0.00  0.00    +0.000 A 
ATOM      8  C   UNL     1     -50.404 -22.728 -64.617  0.00  0.00    +0.000 A 
ATOM      9 CL   UNL     1     -51.817 -22.009 -63.932  0.00  0.00    +0.000 Cl
ATOM     10  C   UNL     1     -49.607 -23.688 -63.959  0.00  0.00    +0.000 A 
ATOM     11  C   UNL     1     -49.925 -24.266 -62.627  0.00  0.00    +0.000 A 
ATOM     12  O   UNL     1     -51.084 -24.273 -62.221  0.00  0.00    +0.000 OA
ATOM     13  C   UNL     1     -48.789 -24.861 -61.801  0.00  0.00    +0.000 A 
ATOM     14  H   UNL     1     -46.780 -25.394 -64.324  0.00  0.00    +0.000 HD
ENDROOT
BRANCH   1  15
ATOM     15  S   UNL     1     -46.268 -26.174 -61.895  0.00  0.00    +0.000 S 
ATOM     16  O   UNL     1     -45.549 -25.061 -61.181  0.00  0.00    +0.000 OA
BRANCH  15  17
ATOM     17  C   UNL     1     -45.331 -26.592 -63.404  0.00  0.00    +0.000 C 
BRANCH  17  21
ATOM     18  C   UNL     1     -44.945 -31.754 -63.338  0.00  0.00    +0.000 C 
ATOM     19  C   UNL     1     -44.936 -30.287 -63.526  0.00  0.00    +0.000 A 
ATOM     20  C   UNL     1     -45.582 -29.225 -62.935  0.00  0.00    +0.000 A 
ATOM     21  C   UNL     1     -45.073 -28.069 -63.594  0.00  0.00    +0.000 A 
ATOM     22  N   UNL     1     -44.190 -28.435 -64.539  0.00  0.00    +0.000 NA
ATOM     23  O   UNL     1     -44.106 -29.813 -64.490  0.00  0.00    +0.000 OA
ENDBRANCH  17  21
ENDBRANCH  15  17
ENDBRANCH   1  15
BRANCH  13  24
ATOM     24  C   UNL     1     -48.923 -24.770 -60.297  0.00  0.00    +0.000 C 
ATOM     25  O   UNL     1     -49.098 -25.787 -59.628  0.00  0.00    +0.000 OA
BRANCH  24  26
ATOM     26  C   UNL     1     -48.908 -23.408 -59.602  0.00  0.00    +0.000 C 
ATOM     27  C   UNL     1     -49.966 -23.320 -58.506  0.00  0.00    +0.000 C 
ATOM     28  C   UNL     1     -47.526 -23.071 -59.034  0.00  0.00    +0.000 C 
ENDBRANCH  24  26
ENDBRANCH  13  24
TORSDOF 5
ENDMDL
MODEL 19
REMARK VINA RESULT:    -5.628     16.897     18.780
REMARK INTER + INTRA:          -8.032
REMARK INTER:                  -7.089
REMARK INTRA:                  -0.944
REMARK UNBOUND:                -0.760
REMARK  Name = 
REMARK  8 active torsions:
REMARK  status: ('A' for Active; 'I' for Inactive)
REMARK    1  A    between atoms: C_1  and  C_2
REMARK    2  A    between atoms: C_4  and  C_5
REMARK    3  A    between atoms: C_5  and  S_6
REMARK    4  A    between atoms: S_6  and  C_8
REMARK    5  A    between atoms: C_20  and  C_21
REMARK    6  A    between atoms: C_21  and  C_23
REMARK    7  A    between atoms: C_23  and  C_24
REMARK    8  A    between atoms: C_23  and  C_25
REMARK                            x       y       z     vdW  Elec       q    Type
REMARK                         _______ _______ _______ _____ _____    ______ ____
ROOT
ATOM      1  C   UNL     1     -47.970 -25.910 -61.829  0.00  0.00    +0.000 A 
ATOM      2  N   UNL     1     -47.740 -25.783 -63.196  0.00  0.00    +0.000 N 
ATOM      3  C   UNL     1     -48.293 -24.724 -63.942  0.00  0.00    +0.000 A 
ATOM      4  C   UNL     1     -47.766 -24.328 -65.186  0.00  0.00    +0.000 A 
ATOM      5 BR   UNL     1     -46.168 -25.099 -65.858  0.00  0.00    +0.000 Br
ATOM      6  C   UNL     1     -48.381 -23.327 -65.942  0.00  0.00    +0.000 A 
ATOM      7  C   UNL     1     -49.530 -22.702 -65.464  0.00  0.00    +0.000 A 
ATOM      8  C   UNL     1     -50.069 -23.077 -64.220  0.00  0.00    +0.000 A 
ATOM      9 CL   UNL     1     -51.451 -22.183 -63.699  0.00  0.00    +0.000 Cl
ATOM     10  C   UNL     1     -49.452 -24.093 -63.460  0.00  0.00    +0.000 A 
ATOM     11  C   UNL     1     -49.960 -24.583 -62.153  0.00  0.00    +0.000 A 
ATOM     12  O   UNL     1     -51.146 -24.450 -61.865  0.00  0.00    +0.000 OA
ATOM     13  C   UNL     1     -48.983 -25.268 -61.201  0.00  0.00    +0.000 A 
ATOM     14  H   UNL     1     -46.811 -26.109 -63.495  0.00  0.00    +0.000 HD
ENDROOT
BRANCH   1  15
ATOM     15  S   UNL     1     -46.628 -26.849 -61.008  0.00  0.00    +0.000 S 
ATOM     16  O   UNL     1     -45.915 -27.528 -62.146  0.00  0.00    +0.000 OA
BRANCH  15  17
ATOM     17  C   UNL     1     -47.528 -28.117 -60.052  0.00  0.00    +0.000 C 
BRANCH  17  21
ATOM     18  C   UNL     1     -49.122 -32.151 -62.877  0.00  0.00    +0.000 C 
ATOM     19  C   UNL     1     -48.501 -31.114 -62.023  0.00  0.00    +0.000 A 
ATOM     20  C   UNL     1     -48.780 -29.799 -61.730  0.00  0.00    +0.000 A 
ATOM     21  C   UNL     1     -47.777 -29.407 -60.797  0.00  0.00    +0.000 A 
ATOM     22  N   UNL     1     -46.939 -30.434 -60.571  0.00  0.00    +0.000 NA
ATOM     23  O   UNL     1     -47.396 -31.493 -61.332  0.00  0.00    +0.000 OA
ENDBRANCH  17  21
ENDBRANCH  15  17
ENDBRANCH   1  15
BRANCH  13  24
ATOM     24  C   UNL     1     -49.251 -25.107 -59.722  0.00  0.00    +0.000 C 
ATOM     25  O   UNL     1     -50.054 -25.846 -59.154  0.00  0.00    +0.000 OA
BRANCH  24  26
ATOM     26  C   UNL     1     -48.577 -23.984 -58.932  0.00  0.00    +0.000 C 
ATOM     27  C   UNL     1     -49.534 -22.824 -58.668  0.00  0.00    +0.000 C 
ATOM     28  C   UNL     1     -47.978 -24.488 -57.617  0.00  0.00    +0.000 C 
ENDBRANCH  24  26
ENDBRANCH  13  24
TORSDOF 5
ENDMDL
MODEL 20
REMARK VINA RESULT:    -5.533     18.688     19.916
REMARK INTER + INTRA:          -7.909
REMARK INTER:                  -6.968
REMARK INTRA:                  -0.942
REMARK UNBOUND:                -0.760
REMARK  Name = 
REMARK  8 active torsions:
REMARK  status: ('A' for Active; 'I' for Inactive)
REMARK    1  A    between atoms: C_1  and  C_2
REMARK    2  A    between atoms: C_4  and  C_5
REMARK    3  A    between atoms: C_5  and  S_6
REMARK    4  A    between atoms: S_6  and  C_8
REMARK    5  A    between atoms: C_20  and  C_21
REMARK    6  A    between atoms: C_21  and  C_23
REMARK    7  A    between atoms: C_23  and  C_24
REMARK    8  A    between atoms: C_23  and  C_25
REMARK                            x       y       z     vdW  Elec       q    Type
REMARK                         _______ _______ _______ _____ _____    ______ ____
ROOT
ATOM      1  C   UNL     1     -47.173 -25.382 -64.299  0.00  0.00    +0.000 A 
ATOM      2  N   UNL     1     -48.044 -24.595 -65.045  0.00  0.00    +0.000 N 
ATOM      3  C   UNL     1     -49.124 -23.917 -64.447  0.00  0.00    +0.000 A 
ATOM      4  C   UNL     1     -49.752 -22.817 -65.061  0.00  0.00    +0.000 A 
ATOM      5 BR   UNL     1     -49.068 -22.076 -66.668  0.00  0.00    +0.000 Br
ATOM      6  C   UNL     1     -50.871 -22.212 -64.482  0.00  0.00    +0.000 A 
ATOM      7  C   UNL     1     -51.377 -22.695 -63.279  0.00  0.00    +0.000 A 
ATOM      8  C   UNL     1     -50.760 -23.789 -62.645  0.00  0.00    +0.000 A 
ATOM      9 CL   UNL     1     -51.433 -24.252 -61.123  0.00  0.00    +0.000 Cl
ATOM     10  C   UNL     1     -49.635 -24.404 -63.232  0.00  0.00    +0.000 A 
ATOM     11  C   UNL     1     -48.934 -25.582 -62.660  0.00  0.00    +0.000 A 
ATOM     12  O   UNL     1     -49.527 -26.340 -61.899  0.00  0.00    +0.000 OA
ATOM     13  C   UNL     1     -47.482 -25.831 -63.059  0.00  0.00    +0.000 A 
ATOM     14  H   UNL     1     -47.599 -24.120 -65.842  0.00  0.00    +0.000 HD
ENDROOT
BRANCH   1  15
ATOM     15  S   UNL     1     -45.535 -25.524 -65.109  0.00  0.00    +0.000 S 
ATOM     16  O   UNL     1     -44.656 -24.602 -64.307  0.00  0.00    +0.000 OA
BRANCH  15  17
ATOM     17  C   UNL     1     -45.813 -24.776 -66.750  0.00  0.00    +0.000 C 
BRANCH  17  21
ATOM     18  C   UNL     1     -44.132 -26.807 -71.205  0.00  0.00    +0.000 C 
ATOM     19  C   UNL     1     -44.523 -26.390 -69.841  0.00  0.00    +0.000 A 
ATOM     20  C   UNL     1     -45.114 -25.273 -69.295  0.00  0.00    +0.000 A 
ATOM     21  C   UNL     1     -45.226 -25.556 -67.903  0.00  0.00    +0.000 A 
ATOM     22  N   UNL     1     -44.708 -26.768 -67.642  0.00  0.00    +0.000 NA
ATOM     23  O   UNL     1     -44.277 -27.284 -68.849  0.00  0.00    +0.000 OA
ENDBRANCH  17  21
ENDBRANCH  15  17
ENDBRANCH   1  15
BRANCH  13  24
ATOM     24  C   UNL     1     -46.598 -26.493 -62.026  0.00  0.00    +0.000 C 
ATOM     25  O   UNL     1     -46.242 -27.661 -62.174  0.00  0.00    +0.000 OA
BRANCH  24  26
ATOM     26  C   UNL     1     -46.193 -25.740 -60.758  0.00  0.00    +0.000 C 
ATOM     27  C   UNL     1     -44.949 -26.346 -60.113  0.00  0.00    +0.000 C 
ATOM     28  C   UNL     1     -45.981 -24.247 -61.023  0.00  0.00    +0.000 C 
ENDBRANCH  24  26
ENDBRANCH  13  24
TORSDOF 5
ENDMDL
