REMARK VINA RESULT:    -6.011      3.711      6.760
REMARK INTER + INTRA:          -8.641
REMARK INTER:                  -7.597
REMARK INTRA:                  -1.044
REMARK UNBOUND:                -0.873
REMARK  Name = 
REMARK  6 active torsions:
REMARK  status: ('A' for Active; 'I' for Inactive)
REMARK    1  A    between atoms: C_1  and  C_2
REMARK    2  A    between atoms: C_4  and  C_5
REMARK    3  A    between atoms: C_5  and  S_6
REMARK    4  A    between atoms: S_6  and  C_8
REMARK    5  A    between atoms: C_20  and  C_21
REMARK    6  A    between atoms: C_21  and  C_23
REMARK                            x       y       z     vdW  Elec       q    Type
REMARK                         _______ _______ _______ _____ _____    ______ ____
ROOT
ATOM      1  C   UNL     1     -55.997 -41.489 -79.143  0.00  0.00    +0.000 A 
ATOM      2  N   UNL     1     -56.591 -41.764 -80.390  0.00  0.00    +0.000 N 
ATOM      3  C   UNL     1     -58.001 -41.907 -80.504  0.00  0.00    +0.000 A 
ATOM      4  C   UNL     1     -58.688 -41.792 -81.727  0.00  0.00    +0.000 A 
ATOM      5 BR   UNL     1     -57.789 -41.253 -83.308  0.00  0.00    +0.000 Br
ATOM      6  C   UNL     1     -60.064 -42.050 -81.813  0.00  0.00    +0.000 A 
ATOM      7  C   UNL     1     -60.776 -42.400 -80.660  0.00  0.00    +0.000 A 
ATOM      8  C   UNL     1     -60.117 -42.519 -79.436  0.00  0.00    +0.000 A 
ATOM      9 CL   UNL     1     -61.097 -42.885 -78.063  0.00  0.00    +0.000 Cl
ATOM     10  C   UNL     1     -58.733 -42.294 -79.370  0.00  0.00    +0.000 A 
ATOM     11  C   UNL     1     -57.938 -42.478 -78.141  0.00  0.00    +0.000 A 
ATOM     12  O   UNL     1     -58.248 -43.303 -77.290  0.00  0.00    +0.000 OA
ATOM     13  C   UNL     1     -56.679 -41.676 -77.991  0.00  0.00    +0.000 A 
ATOM     14  H   UNL     1     -56.167 -41.218 -81.152  0.00  0.00    +0.000 HD
ENDROOT
BRANCH   1  15
ATOM     15  S   UNL     1     -54.497 -40.483 -79.293  0.00  0.00    +0.000 S 
ATOM     16  O   UNL     1     -54.290 -40.348 -80.777  0.00  0.00    +0.000 OA
BRANCH  15  17
ATOM     17  C   UNL     1     -53.080 -41.405 -78.628  0.00  0.00    +0.000 C 
BRANCH  17  21
ATOM     18  C   UNL     1     -49.487 -40.129 -75.210  0.00  0.00    +0.000 C 
ATOM     19  C   UNL     1     -50.602 -40.303 -76.159  0.00  0.00    +0.000 A 
ATOM     20  C   UNL     1     -50.966 -41.279 -77.055  0.00  0.00    +0.000 A 
ATOM     21  C   UNL     1     -52.207 -40.844 -77.571  0.00  0.00    +0.000 A 
ATOM     22  N   UNL     1     -52.532 -39.641 -77.065  0.00  0.00    +0.000 NA
ATOM     23  O   UNL     1     -51.526 -39.309 -76.181  0.00  0.00    +0.000 OA
ENDBRANCH  17  21
ENDBRANCH  15  17
ENDBRANCH   1  15
BRANCH  13  24
ATOM     24  C   UNL     1     -56.501 -41.089 -76.633  0.00  0.00    +0.000 C 
ATOM     25  O   UNL     1     -57.225 -40.187 -76.248  0.00  0.00    +0.000 OA
BRANCH  24  26
ATOM     26  C   UNL     1     -55.464 -41.650 -75.746  0.00  0.00    +0.000 C 
ATOM     27  C   UNL     1     -55.067 -43.096 -75.892  0.00  0.00    +0.000 C 
ATOM     28  C   UNL     1     -55.813 -42.652 -74.671  0.00  0.00    +0.000 C 
ENDBRANCH  24  26
ENDBRANCH  13  24
TORSDOF 5
