REMARK VINA RESULT:    -6.649     13.478     15.114
REMARK INTER + INTRA:          -8.946
REMARK INTER:                  -8.093
REMARK INTRA:                  -0.852
REMARK UNBOUND:                -0.741
REMARK  Name = 
REMARK  5 active torsions:
REMARK  status: ('A' for Active; 'I' for Inactive)
REMARK    1  A    between atoms: C_1  and  C_2
REMARK    2  A    between atoms: C_2  and  C_4
REMARK    3  A    between atoms: C_5  and  S_6
REMARK    4  A    between atoms: S_6  and  C_8
REMARK    5  A    between atoms: C_8  and  C_9
REMARK                            x       y       z     vdW  Elec       q    Type
REMARK                         _______ _______ _______ _____ _____    ______ ____
ROOT
ATOM      1  C   UNL     1     -58.490 -38.782 -62.112  0.00  0.00    +0.000 A 
ATOM      2  C   UNL     1     -57.727 -39.816 -62.528  0.00  0.00    +0.000 A 
ATOM      3  N   UNL     1     -56.428 -39.675 -62.987  0.00  0.00    +0.000 N 
ATOM      4  C   UNL     1     -55.899 -38.412 -63.304  0.00  0.00    +0.000 A 
ATOM      5  C   UNL     1     -54.672 -38.293 -63.981  0.00  0.00    +0.000 A 
ATOM      6 BR   UNL     1     -53.714 -39.832 -64.545  0.00  0.00    +0.000 Br
ATOM      7  C   UNL     1     -54.138 -37.040 -64.267  0.00  0.00    +0.000 A 
ATOM      8  C   UNL     1     -54.823 -35.892 -63.874  0.00  0.00    +0.000 A 
ATOM      9  C   UNL     1     -56.031 -35.990 -63.174  0.00  0.00    +0.000 A 
ATOM     10 CL   UNL     1     -56.814 -34.496 -62.800  0.00  0.00    +0.000 Cl
ATOM     11  C   UNL     1     -56.558 -37.252 -62.860  0.00  0.00    +0.000 A 
ATOM     12  C   UNL     1     -57.797 -37.455 -62.059  0.00  0.00    +0.000 A 
ATOM     13  O   UNL     1     -58.233 -36.568 -61.333  0.00  0.00    +0.000 OA
ATOM     14  H   UNL     1     -56.120 -40.429 -63.603  0.00  0.00    +0.000 HD
ENDROOT
BRANCH   1  16
ATOM     15  C   UNL     1     -60.287 -39.309 -60.303  0.00  0.00    +0.000 C 
ATOM     16  C   UNL     1     -59.933 -38.884 -61.710  0.00  0.00    +0.000 C 
ATOM     17  O   UNL     1     -60.841 -38.620 -62.506  0.00  0.00    +0.000 OA
ENDBRANCH   1  16
BRANCH   2  18
ATOM     18  S   UNL     1     -58.416 -41.484 -62.677  0.00  0.00    +0.000 S 
ATOM     19  O   UNL     1     -59.470 -41.339 -63.739  0.00  0.00    +0.000 OA
BRANCH  18  20
ATOM     20  C   UNL     1     -57.008 -42.331 -63.489  0.00  0.00    +0.000 C 
BRANCH  20  21
ATOM     21  C   UNL     1     -57.104 -42.638 -64.965  0.00  0.00    +0.000 A 
ATOM     22  C   UNL     1     -57.737 -43.776 -65.473  0.00  0.00    +0.000 A 
ATOM     23  C   UNL     1     -57.856 -43.969 -66.852  0.00  0.00    +0.000 A 
ATOM     24  C   UNL     1     -57.368 -43.016 -67.743  0.00  0.00    +0.000 A 
ATOM     25  C   UNL     1     -56.761 -41.863 -67.253  0.00  0.00    +0.000 A 
ATOM     26  C   UNL     1     -56.635 -41.673 -65.876  0.00  0.00    +0.000 A 
ENDBRANCH  20  21
ENDBRANCH  18  20
ENDBRANCH   2  18
TORSDOF 4
