REMARK VINA RESULT:    -5.887     14.701     17.733
REMARK INTER + INTRA:          -8.104
REMARK INTER:                  -7.331
REMARK INTRA:                  -0.773
REMARK UNBOUND:                -0.841
REMARK  Name = 
REMARK  6 active torsions:
REMARK  status: ('A' for Active; 'I' for Inactive)
REMARK    1  A    between atoms: C_1  and  C_2
REMARK    2  A    between atoms: C_2  and  C_4
REMARK    3  A    between atoms: C_5  and  S_6
REMARK    4  A    between atoms: S_6  and  C_8
REMARK    5  A    between atoms: C_8  and  C_9
REMARK    6  A    between atoms: C_11  and  C_12
REMARK                            x       y       z     vdW  Elec       q    Type
REMARK                         _______ _______ _______ _____ _____    ______ ____
ROOT
ATOM      1  C   UNL     1     -68.903 -51.343 -55.595  0.00  0.00    +0.000 A 
ATOM      2  C   UNL     1     -68.106 -50.254 -55.679  0.00  0.00    +0.000 A 
ATOM      3  N   UNL     1     -66.929 -50.113 -54.971  0.00  0.00    +0.000 N 
ATOM      4  C   UNL     1     -66.522 -51.024 -53.984  0.00  0.00    +0.000 A 
ATOM      5  C   UNL     1     -65.333 -50.814 -53.257  0.00  0.00    +0.000 A 
ATOM      6 BR   UNL     1     -64.280 -49.258 -53.537  0.00  0.00    +0.000 Br
ATOM      7  C   UNL     1     -64.898 -51.737 -52.312  0.00  0.00    +0.000 A 
ATOM      8  C   UNL     1     -65.642 -52.894 -52.088  0.00  0.00    +0.000 A 
ATOM      9  C   UNL     1     -66.813 -53.137 -52.816  0.00  0.00    +0.000 A 
ATOM     10 CL   UNL     1     -67.630 -54.608 -52.416  0.00  0.00    +0.000 Cl
ATOM     11  C   UNL     1     -67.248 -52.210 -53.783  0.00  0.00    +0.000 A 
ATOM     12  C   UNL     1     -68.479 -52.399 -54.607  0.00  0.00    +0.000 A 
ATOM     13  O   UNL     1     -69.172 -53.398 -54.451  0.00  0.00    +0.000 OA
ATOM     14  H   UNL     1     -66.616 -49.150 -54.831  0.00  0.00    +0.000 HD
ENDROOT
BRANCH   1  16
ATOM     15  C   UNL     1     -71.497 -51.158 -55.752  0.00  0.00    +0.000 C 
ATOM     16  C   UNL     1     -70.174 -51.531 -56.383  0.00  0.00    +0.000 C 
ATOM     17  O   UNL     1     -70.165 -51.979 -57.527  0.00  0.00    +0.000 OA
ENDBRANCH   1  16
BRANCH   2  18
ATOM     18  S   UNL     1     -68.606 -48.782 -56.632  0.00  0.00    +0.000 S 
ATOM     19  O   UNL     1     -69.685 -48.167 -55.781  0.00  0.00    +0.000 OA
BRANCH  18  20
ATOM     20  C   UNL     1     -67.117 -47.750 -56.382  0.00  0.00    +0.000 C 
BRANCH  20  21
ATOM     21  C   UNL     1     -66.315 -47.598 -57.633  0.00  0.00    +0.000 A 
ATOM     22  C   UNL     1     -65.089 -46.917 -57.857  0.00  0.00    +0.000 A 
ATOM     23  C   UNL     1     -64.822 -47.112 -59.190  0.00  0.00    +0.000 A 
ATOM     24  C   UNL     1     -63.766 -46.656 -60.111  0.00  0.00    +0.000 C 
ATOM     25  O   UNL     1     -65.791 -47.900 -59.725  0.00  0.00    +0.000 OA
ATOM     26  N   UNL     1     -66.724 -48.213 -58.753  0.00  0.00    +0.000 NA
ENDBRANCH  20  21
ENDBRANCH  18  20
ENDBRANCH   2  18
TORSDOF 4
