REMARK VINA RESULT:    -6.699      3.424      6.341
REMARK INTER + INTRA:          -9.551
REMARK INTER:                  -8.811
REMARK INTRA:                  -0.740
REMARK UNBOUND:                -0.894
REMARK  Name = 
REMARK  8 active torsions:
REMARK  status: ('A' for Active; 'I' for Inactive)
REMARK    1  A    between atoms: C_1  and  C_2
REMARK    2  A    between atoms: C_4  and  C_5
REMARK    3  A    between atoms: C_5  and  S_6
REMARK    4  A    between atoms: S_6  and  C_8
REMARK    5  A    between atoms: C_20  and  C_21
REMARK    6  A    between atoms: C_21  and  C_23
REMARK    7  A    between atoms: C_23  and  C_24
REMARK    8  A    between atoms: C_23  and  C_25
REMARK                            x       y       z     vdW  Elec       q    Type
REMARK                         _______ _______ _______ _____ _____    ______ ____
ROOT
ATOM      1  C   UNL     1     -55.248 -40.872 -78.473  0.00  0.00    +0.000 A 
ATOM      2  N   UNL     1     -54.846 -41.115 -79.784  0.00  0.00    +0.000 N 
ATOM      3  C   UNL     1     -55.778 -41.391 -80.807  0.00  0.00    +0.000 A 
ATOM      4  C   UNL     1     -55.454 -41.256 -82.171  0.00  0.00    +0.000 A 
ATOM      5 CL   UNL     1     -53.937 -40.584 -82.656  0.00  0.00    +0.000 Cl
ATOM      6  C   UNL     1     -56.356 -41.634 -83.166  0.00  0.00    +0.000 A 
ATOM      7  C   UNL     1     -57.602 -42.152 -82.806  0.00  0.00    +0.000 A 
ATOM      8  C   UNL     1     -57.949 -42.280 -81.455  0.00  0.00    +0.000 A 
ATOM      9 CL   UNL     1     -59.539 -42.868 -81.136  0.00  0.00    +0.000 Cl
ATOM     10  C   UNL     1     -57.032 -41.911 -80.458  0.00  0.00    +0.000 A 
ATOM     11  C   UNL     1     -57.259 -42.078 -79.000  0.00  0.00    +0.000 A 
ATOM     12  O   UNL     1     -58.006 -42.967 -78.609  0.00  0.00    +0.000 OA
ATOM     13  C   UNL     1     -56.492 -41.199 -78.020  0.00  0.00    +0.000 A 
ATOM     14  H   UNL     1     -54.027 -40.562 -80.072  0.00  0.00    +0.000 HD
ENDROOT
BRANCH   1  15
ATOM     15  S   UNL     1     -54.003 -39.865 -77.572  0.00  0.00    +0.000 S 
ATOM     16  O   UNL     1     -53.308 -39.097 -78.664  0.00  0.00    +0.000 OA
BRANCH  15  17
ATOM     17  C   UNL     1     -52.823 -41.133 -76.954  0.00  0.00    +0.000 C 
BRANCH  17  21
ATOM     18  C   UNL     1     -48.929 -38.404 -74.921  0.00  0.00    +0.000 C 
ATOM     19  C   UNL     1     -49.957 -39.349 -75.409  0.00  0.00    +0.000 A 
ATOM     20  C   UNL     1     -51.168 -39.227 -76.050  0.00  0.00    +0.000 A 
ATOM     21  C   UNL     1     -51.608 -40.564 -76.264  0.00  0.00    +0.000 A 
ATOM     22  N   UNL     1     -50.719 -41.428 -75.746  0.00  0.00    +0.000 NA
ATOM     23  O   UNL     1     -49.691 -40.667 -75.221  0.00  0.00    +0.000 OA
ENDBRANCH  17  21
ENDBRANCH  15  17
ENDBRANCH   1  15
BRANCH  13  24
ATOM     24  C   UNL     1     -57.251 -40.843 -76.758  0.00  0.00    +0.000 C 
ATOM     25  O   UNL     1     -58.159 -40.003 -76.803  0.00  0.00    +0.000 OA
BRANCH  24  26
ATOM     26  C   UNL     1     -56.845 -41.368 -75.394  0.00  0.00    +0.000 C 
ATOM     27  C   UNL     1     -57.617 -40.636 -74.313  0.00  0.00    +0.000 C 
ATOM     28  C   UNL     1     -56.971 -42.885 -75.314  0.00  0.00    +0.000 C 
ENDBRANCH  24  26
ENDBRANCH  13  24
TORSDOF 5
