REMARK VINA RESULT:    -6.469      4.031      6.333
REMARK INTER + INTRA:          -9.234
REMARK INTER:                  -8.042
REMARK INTRA:                  -1.192
REMARK UNBOUND:                -0.874
REMARK  Name = 
REMARK  8 active torsions:
REMARK  status: ('A' for Active; 'I' for Inactive)
REMARK    1  A    between atoms: C_1  and  C_2
REMARK    2  A    between atoms: C_4  and  C_5
REMARK    3  A    between atoms: C_5  and  S_6
REMARK    4  A    between atoms: S_6  and  C_8
REMARK    5  A    between atoms: C_20  and  C_21
REMARK    6  A    between atoms: C_21  and  C_23
REMARK    7  A    between atoms: C_23  and  C_24
REMARK    8  A    between atoms: C_23  and  C_25
REMARK                            x       y       z     vdW  Elec       q    Type
REMARK                         _______ _______ _______ _____ _____    ______ ____
ROOT
ATOM      1  C   UNL     1     -55.259 -43.142 -77.787  0.00  0.00    +0.000 A 
ATOM      2  N   UNL     1     -55.253 -43.941 -78.927  0.00  0.00    +0.000 N 
ATOM      3  C   UNL     1     -55.438 -45.335 -78.852  0.00  0.00    +0.000 A 
ATOM      4  C   UNL     1     -55.848 -46.097 -79.963  0.00  0.00    +0.000 A 
ATOM      5 BR   UNL     1     -56.336 -45.259 -81.594  0.00  0.00    +0.000 Br
ATOM      6  C   UNL     1     -55.949 -47.489 -79.883  0.00  0.00    +0.000 A 
ATOM      7  C   UNL     1     -55.646 -48.139 -78.690  0.00  0.00    +0.000 A 
ATOM      8  C   UNL     1     -55.241 -47.396 -77.566  0.00  0.00    +0.000 A 
ATOM      9 CL   UNL     1     -54.962 -48.305 -76.125  0.00  0.00    +0.000 Cl
ATOM     10  C   UNL     1     -55.133 -45.992 -77.649  0.00  0.00    +0.000 A 
ATOM     11  C   UNL     1     -54.684 -45.122 -76.532  0.00  0.00    +0.000 A 
ATOM     12  O   UNL     1     -53.985 -45.585 -75.635  0.00  0.00    +0.000 OA
ATOM     13  C   UNL     1     -55.091 -43.652 -76.544  0.00  0.00    +0.000 A 
ATOM     14  H   UNL     1     -55.636 -43.478 -79.763  0.00  0.00    +0.000 HD
ENDROOT
BRANCH   1  15
ATOM     15  S   UNL     1     -55.729 -41.415 -78.180  0.00  0.00    +0.000 S 
ATOM     16  O   UNL     1     -56.789 -41.563 -79.238  0.00  0.00    +0.000 OA
BRANCH  15  17
ATOM     17  C   UNL     1     -54.225 -40.738 -78.960  0.00  0.00    +0.000 C 
BRANCH  17  21
ATOM     18  C   UNL     1     -50.242 -40.672 -75.653  0.00  0.00    +0.000 C 
ATOM     19  C   UNL     1     -51.277 -40.840 -76.697  0.00  0.00    +0.000 A 
ATOM     20  C   UNL     1     -52.542 -40.340 -76.904  0.00  0.00    +0.000 A 
ATOM     21  C   UNL     1     -52.965 -40.904 -78.143  0.00  0.00    +0.000 A 
ATOM     22  N   UNL     1     -52.005 -41.710 -78.627  0.00  0.00    +0.000 NA
ATOM     23  O   UNL     1     -50.957 -41.664 -77.727  0.00  0.00    +0.000 OA
ENDBRANCH  17  21
ENDBRANCH  15  17
ENDBRANCH   1  15
BRANCH  13  24
ATOM     24  C   UNL     1     -55.288 -42.990 -75.198  0.00  0.00    +0.000 C 
ATOM     25  O   UNL     1     -54.373 -42.346 -74.686  0.00  0.00    +0.000 OA
BRANCH  24  26
ATOM     26  C   UNL     1     -56.598 -43.172 -74.431  0.00  0.00    +0.000 C 
ATOM     27  C   UNL     1     -56.608 -42.375 -73.130  0.00  0.00    +0.000 C 
ATOM     28  C   UNL     1     -57.816 -42.809 -75.286  0.00  0.00    +0.000 C 
ENDBRANCH  24  26
ENDBRANCH  13  24
TORSDOF 5
