REMARK VINA RESULT:    -5.285     14.775     17.526
REMARK INTER + INTRA:          -7.772
REMARK INTER:                  -6.852
REMARK INTRA:                  -0.920
REMARK UNBOUND:                -0.942
REMARK  Name = 
REMARK  8 active torsions:
REMARK  status: ('A' for Active; 'I' for Inactive)
REMARK    1  A    between atoms: C_1  and  C_2
REMARK    2  A    between atoms: C_4  and  C_5
REMARK    3  A    between atoms: C_5  and  S_6
REMARK    4  A    between atoms: S_6  and  C_8
REMARK    5  A    between atoms: C_20  and  C_21
REMARK    6  A    between atoms: C_21  and  C_23
REMARK    7  A    between atoms: C_23  and  C_24
REMARK    8  A    between atoms: C_23  and  C_25
REMARK                            x       y       z     vdW  Elec       q    Type
REMARK                         _______ _______ _______ _____ _____    ______ ____
ROOT
ATOM      1  C   UNL     1     -66.181 -50.049 -53.806  0.00  0.00    +0.000 A 
ATOM      2  N   UNL     1     -66.299 -51.272 -53.149  0.00  0.00    +0.000 N 
ATOM      3  C   UNL     1     -67.126 -52.302 -53.644  0.00  0.00    +0.000 A 
ATOM      4  C   UNL     1     -66.973 -53.643 -53.241  0.00  0.00    +0.000 A 
ATOM      5 CL   UNL     1     -65.650 -54.117 -52.235  0.00  0.00    +0.000 Cl
ATOM      6  C   UNL     1     -67.867 -54.627 -53.662  0.00  0.00    +0.000 A 
ATOM      7  C   UNL     1     -68.930 -54.281 -54.500  0.00  0.00    +0.000 A 
ATOM      8  C   UNL     1     -69.090 -52.955 -54.924  0.00  0.00    +0.000 A 
ATOM      9 CL   UNL     1     -70.398 -52.663 -56.010  0.00  0.00    +0.000 Cl
ATOM     10  C   UNL     1     -68.195 -51.967 -54.486  0.00  0.00    +0.000 A 
ATOM     11  C   UNL     1     -68.314 -50.521 -54.805  0.00  0.00    +0.000 A 
ATOM     12  O   UNL     1     -69.420 -50.048 -55.035  0.00  0.00    +0.000 OA
ATOM     13  C   UNL     1     -67.071 -49.641 -54.754  0.00  0.00    +0.000 A 
ATOM     14  H   UNL     1     -65.427 -51.584 -52.701  0.00  0.00    +0.000 HD
ENDROOT
BRANCH   1  15
ATOM     15  S   UNL     1     -64.583 -49.232 -53.405  0.00  0.00    +0.000 S 
ATOM     16  O   UNL     1     -63.832 -50.280 -52.629  0.00  0.00    +0.000 OA
BRANCH  15  17
ATOM     17  C   UNL     1     -65.083 -47.920 -52.218  0.00  0.00    +0.000 C 
BRANCH  17  21
ATOM     18  C   UNL     1     -61.248 -44.481 -51.773  0.00  0.00    +0.000 C 
ATOM     19  C   UNL     1     -62.328 -45.486 -51.694  0.00  0.00    +0.000 A 
ATOM     20  C   UNL     1     -63.275 -45.972 -52.566  0.00  0.00    +0.000 A 
ATOM     21  C   UNL     1     -63.971 -46.975 -51.835  0.00  0.00    +0.000 A 
ATOM     22  N   UNL     1     -63.482 -47.053 -50.586  0.00  0.00    +0.000 NA
ATOM     23  O   UNL     1     -62.457 -46.130 -50.505  0.00  0.00    +0.000 OA
ENDBRANCH  17  21
ENDBRANCH  15  17
ENDBRANCH   1  15
BRANCH  13  24
ATOM     24  C   UNL     1     -67.052 -48.511 -55.762  0.00  0.00    +0.000 C 
ATOM     25  O   UNL     1     -66.755 -48.744 -56.942  0.00  0.00    +0.000 OA
BRANCH  24  26
ATOM     26  C   UNL     1     -67.237 -47.061 -55.357  0.00  0.00    +0.000 C 
ATOM     27  C   UNL     1     -67.943 -46.990 -54.016  0.00  0.00    +0.000 C 
ATOM     28  C   UNL     1     -65.921 -46.293 -55.395  0.00  0.00    +0.000 C 
ENDBRANCH  24  26
ENDBRANCH  13  24
TORSDOF 5
