REMARK VINA RESULT:    -5.844      3.864      6.512
REMARK INTER + INTRA:          -8.140
REMARK INTER:                  -7.273
REMARK INTRA:                  -0.867
REMARK UNBOUND:                -0.930
REMARK  Name = 
REMARK  6 active torsions:
REMARK  status: ('A' for Active; 'I' for Inactive)
REMARK    1  A    between atoms: C_1  and  C_2
REMARK    2  A    between atoms: C_2  and  C_4
REMARK    3  A    between atoms: C_5  and  S_6
REMARK    4  A    between atoms: S_6  and  C_8
REMARK    5  A    between atoms: C_8  and  C_9
REMARK    6  A    between atoms: C_11  and  C_12
REMARK                            x       y       z     vdW  Elec       q    Type
REMARK                         _______ _______ _______ _____ _____    ______ ____
ROOT
ATOM      1  C   UNL     1     -58.638 -38.707 -62.067  0.00  0.00    +0.000 A 
ATOM      2  C   UNL     1     -57.889 -39.755 -62.480  0.00  0.00    +0.000 A 
ATOM      3  N   UNL     1     -56.583 -39.632 -62.924  0.00  0.00    +0.000 N 
ATOM      4  C   UNL     1     -56.046 -38.378 -63.271  0.00  0.00    +0.000 A 
ATOM      5  C   UNL     1     -54.829 -38.277 -63.965  0.00  0.00    +0.000 A 
ATOM      6 BR   UNL     1     -53.883 -39.831 -64.510  0.00  0.00    +0.000 Br
ATOM      7  C   UNL     1     -54.294 -37.032 -64.286  0.00  0.00    +0.000 A 
ATOM      8  C   UNL     1     -54.972 -35.871 -63.910  0.00  0.00    +0.000 A 
ATOM      9  C   UNL     1     -56.171 -35.950 -63.186  0.00  0.00    +0.000 A 
ATOM     10 CL   UNL     1     -56.951 -34.453 -62.837  0.00  0.00    +0.000 Cl
ATOM     11  C   UNL     1     -56.691 -37.207 -62.840  0.00  0.00    +0.000 A 
ATOM     12  C   UNL     1     -57.910 -37.396 -62.007  0.00  0.00    +0.000 A 
ATOM     13  O   UNL     1     -58.299 -36.513 -61.250  0.00  0.00    +0.000 OA
ATOM     14  H   UNL     1     -56.281 -40.395 -63.537  0.00  0.00    +0.000 HD
ENDROOT
BRANCH   1  16
ATOM     15  C   UNL     1     -60.445 -39.171 -60.252  0.00  0.00    +0.000 C 
ATOM     16  C   UNL     1     -60.081 -38.772 -61.668  0.00  0.00    +0.000 C 
ATOM     17  O   UNL     1     -60.973 -38.497 -62.471  0.00  0.00    +0.000 OA
ENDBRANCH   1  16
BRANCH   2  18
ATOM     18  S   UNL     1     -58.588 -41.433 -62.639  0.00  0.00    +0.000 S 
ATOM     19  O   UNL     1     -59.550 -41.295 -63.789  0.00  0.00    +0.000 OA
BRANCH  18  20
ATOM     20  C   UNL     1     -57.095 -42.252 -63.315  0.00  0.00    +0.000 C 
BRANCH  20  21
ATOM     21  C   UNL     1     -57.185 -42.601 -64.765  0.00  0.00    +0.000 A 
ATOM     22  C   UNL     1     -56.683 -41.937 -65.915  0.00  0.00    +0.000 A 
ATOM     23  C   UNL     1     -56.990 -42.770 -66.963  0.00  0.00    +0.000 A 
ATOM     24  C   UNL     1     -56.779 -42.733 -68.422  0.00  0.00    +0.000 C 
ATOM     25  O   UNL     1     -57.624 -43.871 -66.480  0.00  0.00    +0.000 OA
ATOM     26  N   UNL     1     -57.742 -43.774 -65.109  0.00  0.00    +0.000 NA
ENDBRANCH  20  21
ENDBRANCH  18  20
ENDBRANCH   2  18
TORSDOF 4
