REMARK VINA RESULT:    -5.942     25.321     27.281
REMARK INTER + INTRA:          -8.549
REMARK INTER:                  -7.579
REMARK INTRA:                  -0.969
REMARK UNBOUND:                -0.870
REMARK  Name = 
REMARK  8 active torsions:
REMARK  status: ('A' for Active; 'I' for Inactive)
REMARK    1  A    between atoms: C_1  and  C_2
REMARK    2  A    between atoms: C_4  and  C_5
REMARK    3  A    between atoms: C_5  and  S_6
REMARK    4  A    between atoms: S_6  and  C_8
REMARK    5  A    between atoms: C_20  and  C_21
REMARK    6  A    between atoms: C_21  and  C_23
REMARK    7  A    between atoms: C_23  and  C_24
REMARK    8  A    between atoms: C_23  and  C_25
REMARK                            x       y       z     vdW  Elec       q    Type
REMARK                         _______ _______ _______ _____ _____    ______ ____
ROOT
ATOM      1  C   UNL     1     -66.166 -51.458 -53.567  0.00  0.00    +0.000 A 
ATOM      2  N   UNL     1     -66.627 -50.699 -54.639  0.00  0.00    +0.000 N 
ATOM      3  C   UNL     1     -67.893 -50.923 -55.212  0.00  0.00    +0.000 A 
ATOM      4  C   UNL     1     -68.550 -49.945 -55.984  0.00  0.00    +0.000 A 
ATOM      5 BR   UNL     1     -67.832 -48.198 -56.161  0.00  0.00    +0.000 Br
ATOM      6  C   UNL     1     -69.770 -50.221 -56.607  0.00  0.00    +0.000 A 
ATOM      7  C   UNL     1     -70.355 -51.476 -56.463  0.00  0.00    +0.000 A 
ATOM      8  C   UNL     1     -69.720 -52.464 -55.690  0.00  0.00    +0.000 A 
ATOM      9 CL   UNL     1     -70.575 -53.955 -55.526  0.00  0.00    +0.000 Cl
ATOM     10  C   UNL     1     -68.484 -52.188 -55.068  0.00  0.00    +0.000 A 
ATOM     11  C   UNL     1     -67.719 -53.172 -54.260  0.00  0.00    +0.000 A 
ATOM     12  O   UNL     1     -67.886 -54.375 -54.435  0.00  0.00    +0.000 OA
ATOM     13  C   UNL     1     -66.716 -52.651 -53.235  0.00  0.00    +0.000 A 
ATOM     14  H   UNL     1     -66.302 -49.722 -54.628  0.00  0.00    +0.000 HD
ENDROOT
BRANCH   1  15
ATOM     15  S   UNL     1     -64.918 -50.546 -52.584  0.00  0.00    +0.000 S 
ATOM     16  O   UNL     1     -65.738 -49.784 -51.579  0.00  0.00    +0.000 OA
BRANCH  15  17
ATOM     17  C   UNL     1     -64.226 -49.358 -53.784  0.00  0.00    +0.000 C 
BRANCH  17  21
ATOM     18  C   UNL     1     -63.858 -44.672 -51.615  0.00  0.00    +0.000 C 
ATOM     19  C   UNL     1     -64.087 -45.920 -52.374  0.00  0.00    +0.000 A 
ATOM     20  C   UNL     1     -63.577 -47.198 -52.325  0.00  0.00    +0.000 A 
ATOM     21  C   UNL     1     -64.275 -47.915 -53.340  0.00  0.00    +0.000 A 
ATOM     22  N   UNL     1     -65.135 -47.094 -53.968  0.00  0.00    +0.000 NA
ATOM     23  O   UNL     1     -65.017 -45.858 -53.362  0.00  0.00    +0.000 OA
ENDBRANCH  17  21
ENDBRANCH  15  17
ENDBRANCH   1  15
BRANCH  13  24
ATOM     24  C   UNL     1     -66.506 -53.496 -51.998  0.00  0.00    +0.000 C 
ATOM     25  O   UNL     1     -65.648 -54.377 -51.989  0.00  0.00    +0.000 OA
BRANCH  24  26
ATOM     26  C   UNL     1     -67.402 -53.308 -50.773  0.00  0.00    +0.000 C 
ATOM     27  C   UNL     1     -68.313 -52.092 -50.919  0.00  0.00    +0.000 C 
ATOM     28  C   UNL     1     -68.231 -54.559 -50.473  0.00  0.00    +0.000 C 
ENDBRANCH  24  26
ENDBRANCH  13  24
TORSDOF 5
