REMARK VINA RESULT:    -6.615      3.334      5.414
REMARK INTER + INTRA:          -9.676
REMARK INTER:                  -8.768
REMARK INTRA:                  -0.908
REMARK UNBOUND:                -1.127
REMARK  Name = 
REMARK  8 active torsions:
REMARK  status: ('A' for Active; 'I' for Inactive)
REMARK    1  A    between atoms: C_1  and  C_2
REMARK    2  A    between atoms: C_4  and  C_5
REMARK    3  A    between atoms: C_5  and  S_6
REMARK    4  A    between atoms: S_6  and  C_8
REMARK    5  A    between atoms: C_20  and  C_21
REMARK    6  A    between atoms: C_21  and  C_23
REMARK    7  A    between atoms: C_23  and  C_24
REMARK    8  A    between atoms: C_23  and  C_25
REMARK                            x       y       z     vdW  Elec       q    Type
REMARK                         _______ _______ _______ _____ _____    ______ ____
ROOT
ATOM      1  C   UNL     1     -57.504 -41.014 -63.006  0.00  0.00    +0.000 A 
ATOM      2  N   UNL     1     -57.078 -39.794 -62.492  0.00  0.00    +0.000 N 
ATOM      3  C   UNL     1     -56.010 -39.081 -63.071  0.00  0.00    +0.000 A 
ATOM      4  C   UNL     1     -55.828 -37.701 -62.858  0.00  0.00    +0.000 A 
ATOM      5 BR   UNL     1     -57.112 -36.683 -61.904  0.00  0.00    +0.000 Br
ATOM      6  C   UNL     1     -54.716 -37.034 -63.381  0.00  0.00    +0.000 A 
ATOM      7  C   UNL     1     -53.774 -37.735 -64.128  0.00  0.00    +0.000 A 
ATOM      8  C   UNL     1     -53.941 -39.112 -64.358  0.00  0.00    +0.000 A 
ATOM      9 CL   UNL     1     -52.746 -39.858 -65.357  0.00  0.00    +0.000 Cl
ATOM     10  C   UNL     1     -55.059 -39.787 -63.825  0.00  0.00    +0.000 A 
ATOM     11  C   UNL     1     -55.309 -41.243 -63.983  0.00  0.00    +0.000 A 
ATOM     12  O   UNL     1     -54.374 -42.007 -64.206  0.00  0.00    +0.000 OA
ATOM     13  C   UNL     1     -56.739 -41.757 -63.841  0.00  0.00    +0.000 A 
ATOM     14  H   UNL     1     -57.834 -39.224 -62.087  0.00  0.00    +0.000 HD
ENDROOT
BRANCH   1  15
ATOM     15  S   UNL     1     -59.258 -41.344 -62.587  0.00  0.00    +0.000 S 
ATOM     16  O   UNL     1     -59.805 -39.987 -62.236  0.00  0.00    +0.000 OA
BRANCH  15  17
ATOM     17  C   UNL     1     -59.144 -42.334 -61.058  0.00  0.00    +0.000 C 
BRANCH  17  21
ATOM     18  C   UNL     1     -61.885 -46.722 -61.243  0.00  0.00    +0.000 C 
ATOM     19  C   UNL     1     -61.262 -45.390 -61.084  0.00  0.00    +0.000 A 
ATOM     20  C   UNL     1     -60.027 -44.852 -61.368  0.00  0.00    +0.000 A 
ATOM     21  C   UNL     1     -60.121 -43.484 -60.980  0.00  0.00    +0.000 A 
ATOM     22  N   UNL     1     -61.342 -43.237 -60.474  0.00  0.00    +0.000 NA
ATOM     23  O   UNL     1     -62.048 -44.423 -60.545  0.00  0.00    +0.000 OA
ENDBRANCH  17  21
ENDBRANCH  15  17
ENDBRANCH   1  15
BRANCH  13  24
ATOM     24  C   UNL     1     -57.109 -42.971 -64.662  0.00  0.00    +0.000 C 
ATOM     25  O   UNL     1     -57.313 -44.052 -64.111  0.00  0.00    +0.000 OA
BRANCH  24  26
ATOM     26  C   UNL     1     -57.168 -42.884 -66.188  0.00  0.00    +0.000 C 
ATOM     27  C   UNL     1     -57.913 -44.070 -66.794  0.00  0.00    +0.000 C 
ATOM     28  C   UNL     1     -57.790 -41.568 -66.662  0.00  0.00    +0.000 C 
ENDBRANCH  24  26
ENDBRANCH  13  24
TORSDOF 5
