REMARK VINA RESULT:    -5.981     13.054     15.615
REMARK INTER + INTRA:          -8.967
REMARK INTER:                  -8.184
REMARK INTRA:                  -0.783
REMARK UNBOUND:                -1.238
REMARK  Name = 
REMARK  8 active torsions:
REMARK  status: ('A' for Active; 'I' for Inactive)
REMARK    1  A    between atoms: C_1  and  C_2
REMARK    2  A    between atoms: C_4  and  C_5
REMARK    3  A    between atoms: C_5  and  S_6
REMARK    4  A    between atoms: S_6  and  C_8
REMARK    5  A    between atoms: C_20  and  C_21
REMARK    6  A    between atoms: C_21  and  C_23
REMARK    7  A    between atoms: C_23  and  C_24
REMARK    8  A    between atoms: C_23  and  C_25
REMARK                            x       y       z     vdW  Elec       q    Type
REMARK                         _______ _______ _______ _____ _____    ______ ____
ROOT
ATOM      1  C   UNL     1     -54.137 -41.729 -78.343  0.00  0.00    +0.000 A 
ATOM      2  N   UNL     1     -55.469 -42.106 -78.487  0.00  0.00    +0.000 N 
ATOM      3  C   UNL     1     -56.379 -42.024 -77.415  0.00  0.00    +0.000 A 
ATOM      4  C   UNL     1     -57.772 -41.990 -77.616  0.00  0.00    +0.000 A 
ATOM      5 BR   UNL     1     -58.504 -41.888 -79.363  0.00  0.00    +0.000 Br
ATOM      6  C   UNL     1     -58.655 -41.988 -76.532  0.00  0.00    +0.000 A 
ATOM      7  C   UNL     1     -58.159 -42.014 -75.232  0.00  0.00    +0.000 A 
ATOM      8  C   UNL     1     -56.770 -42.041 -75.009  0.00  0.00    +0.000 A 
ATOM      9 CL   UNL     1     -56.273 -41.999 -73.356  0.00  0.00    +0.000 Cl
ATOM     10  C   UNL     1     -55.879 -42.051 -76.103  0.00  0.00    +0.000 A 
ATOM     11  C   UNL     1     -54.400 -42.111 -75.974  0.00  0.00    +0.000 A 
ATOM     12  O   UNL     1     -53.890 -42.580 -74.961  0.00  0.00    +0.000 OA
ATOM     13  C   UNL     1     -53.547 -41.600 -77.131  0.00  0.00    +0.000 A 
ATOM     14  H   UNL     1     -55.856 -41.923 -79.423  0.00  0.00    +0.000 HD
ENDROOT
BRANCH   1  15
ATOM     15  S   UNL     1     -53.401 -41.239 -79.949  0.00  0.00    +0.000 S 
ATOM     16  O   UNL     1     -54.230 -40.059 -80.378  0.00  0.00    +0.000 OA
BRANCH  15  17
ATOM     17  C   UNL     1     -53.795 -42.649 -81.038  0.00  0.00    +0.000 C 
BRANCH  17  21
ATOM     18  C   UNL     1     -50.024 -42.700 -84.585  0.00  0.00    +0.000 C 
ATOM     19  C   UNL     1     -51.198 -42.822 -83.693  0.00  0.00    +0.000 A 
ATOM     20  C   UNL     1     -51.521 -42.358 -82.439  0.00  0.00    +0.000 A 
ATOM     21  C   UNL     1     -52.843 -42.832 -82.197  0.00  0.00    +0.000 A 
ATOM     22  N   UNL     1     -53.266 -43.555 -83.248  0.00  0.00    +0.000 NA
ATOM     23  O   UNL     1     -52.242 -43.543 -84.176  0.00  0.00    +0.000 OA
ENDBRANCH  17  21
ENDBRANCH  15  17
ENDBRANCH   1  15
BRANCH  13  24
ATOM     24  C   UNL     1     -52.207 -40.997 -76.773  0.00  0.00    +0.000 C 
ATOM     25  O   UNL     1     -51.190 -41.690 -76.796  0.00  0.00    +0.000 OA
BRANCH  24  26
ATOM     26  C   UNL     1     -52.112 -39.541 -76.314  0.00  0.00    +0.000 C 
ATOM     27  C   UNL     1     -50.676 -39.145 -75.981  0.00  0.00    +0.000 C 
ATOM     28  C   UNL     1     -52.703 -38.577 -77.346  0.00  0.00    +0.000 C 
ENDBRANCH  24  26
ENDBRANCH  13  24
TORSDOF 5
