REMARK VINA RESULT:    -5.855      8.956     12.147
REMARK INTER + INTRA:          -8.693
REMARK INTER:                  -7.880
REMARK INTRA:                  -0.813
REMARK UNBOUND:                -1.127
REMARK  Name = 
REMARK  8 active torsions:
REMARK  status: ('A' for Active; 'I' for Inactive)
REMARK    1  A    between atoms: C_1  and  C_2
REMARK    2  A    between atoms: C_4  and  C_5
REMARK    3  A    between atoms: C_5  and  S_6
REMARK    4  A    between atoms: S_6  and  C_8
REMARK    5  A    between atoms: C_20  and  C_21
REMARK    6  A    between atoms: C_21  and  C_23
REMARK    7  A    between atoms: C_23  and  C_24
REMARK    8  A    between atoms: C_23  and  C_25
REMARK                            x       y       z     vdW  Elec       q    Type
REMARK                         _______ _______ _______ _____ _____    ______ ____
ROOT
ATOM      1  C   UNL     1     -57.224 -31.654 -61.032  0.00  0.00    +0.000 A 
ATOM      2  N   UNL     1     -56.086 -32.187 -60.435  0.00  0.00    +0.000 N 
ATOM      3  C   UNL     1     -55.282 -33.138 -61.095  0.00  0.00    +0.000 A 
ATOM      4  C   UNL     1     -53.946 -33.377 -60.723  0.00  0.00    +0.000 A 
ATOM      5 BR   UNL     1     -53.094 -32.310 -59.406  0.00  0.00    +0.000 Br
ATOM      6  C   UNL     1     -53.196 -34.380 -61.343  0.00  0.00    +0.000 A 
ATOM      7  C   UNL     1     -53.768 -35.155 -62.347  0.00  0.00    +0.000 A 
ATOM      8  C   UNL     1     -55.100 -34.927 -62.740  0.00  0.00    +0.000 A 
ATOM      9 CL   UNL     1     -55.676 -35.902 -64.043  0.00  0.00    +0.000 Cl
ATOM     10  C   UNL     1     -55.859 -33.920 -62.109  0.00  0.00    +0.000 A 
ATOM     11  C   UNL     1     -57.279 -33.623 -62.428  0.00  0.00    +0.000 A 
ATOM     12  O   UNL     1     -57.991 -34.487 -62.931  0.00  0.00    +0.000 OA
ATOM     13  C   UNL     1     -57.827 -32.238 -62.095  0.00  0.00    +0.000 A 
ATOM     14  H   UNL     1     -55.591 -31.529 -59.817  0.00  0.00    +0.000 HD
ENDROOT
BRANCH   1  15
ATOM     15  S   UNL     1     -57.634 -30.006 -60.343  0.00  0.00    +0.000 S 
ATOM     16  O   UNL     1     -56.762 -29.062 -61.126  0.00  0.00    +0.000 OA
BRANCH  15  17
ATOM     17  C   UNL     1     -56.999 -30.096 -58.634  0.00  0.00    +0.000 C 
BRANCH  17  21
ATOM     18  C   UNL     1     -57.468 -25.466 -56.367  0.00  0.00    +0.000 C 
ATOM     19  C   UNL     1     -57.450 -26.861 -56.858  0.00  0.00    +0.000 A 
ATOM     20  C   UNL     1     -56.995 -27.487 -57.997  0.00  0.00    +0.000 A 
ATOM     21  C   UNL     1     -57.274 -28.870 -57.796  0.00  0.00    +0.000 A 
ATOM     22  N   UNL     1     -57.881 -29.044 -56.609  0.00  0.00    +0.000 NA
ATOM     23  O   UNL     1     -57.984 -27.794 -56.029  0.00  0.00    +0.000 OA
ENDBRANCH  17  21
ENDBRANCH  15  17
ENDBRANCH   1  15
BRANCH  13  24
ATOM     24  C   UNL     1     -58.914 -31.701 -62.999  0.00  0.00    +0.000 C 
ATOM     25  O   UNL     1     -60.094 -31.971 -62.776  0.00  0.00    +0.000 OA
BRANCH  24  26
ATOM     26  C   UNL     1     -58.553 -30.876 -64.235  0.00  0.00    +0.000 C 
ATOM     27  C   UNL     1     -59.410 -31.257 -65.440  0.00  0.00    +0.000 C 
ATOM     28  C   UNL     1     -58.652 -29.372 -63.967  0.00  0.00    +0.000 C 
ENDBRANCH  24  26
ENDBRANCH  13  24
TORSDOF 5
