REMARK VINA RESULT:    -5.861      3.514      5.930
REMARK INTER + INTRA:          -8.729
REMARK INTER:                  -7.930
REMARK INTRA:                  -0.799
REMARK UNBOUND:                -1.155
REMARK  Name = 
REMARK  6 active torsions:
REMARK  status: ('A' for Active; 'I' for Inactive)
REMARK    1  A    between atoms: C_1  and  C_2
REMARK    2  A    between atoms: C_4  and  C_5
REMARK    3  A    between atoms: C_5  and  S_6
REMARK    4  A    between atoms: S_6  and  C_8
REMARK    5  A    between atoms: C_20  and  C_21
REMARK    6  A    between atoms: C_21  and  C_23
REMARK                            x       y       z     vdW  Elec       q    Type
REMARK                         _______ _______ _______ _____ _____    ______ ____
ROOT
ATOM      1  C   UNL     1     -56.269 -40.898 -61.786  0.00  0.00    +0.000 A 
ATOM      2  N   UNL     1     -56.345 -41.548 -60.539  0.00  0.00    +0.000 N 
ATOM      3  C   UNL     1     -55.492 -42.646 -60.242  0.00  0.00    +0.000 A 
ATOM      4  C   UNL     1     -55.233 -43.085 -58.930  0.00  0.00    +0.000 A 
ATOM      5 BR   UNL     1     -55.872 -42.116 -57.430  0.00  0.00    +0.000 Br
ATOM      6  C   UNL     1     -54.475 -44.238 -58.687  0.00  0.00    +0.000 A 
ATOM      7  C   UNL     1     -53.940 -44.955 -59.764  0.00  0.00    +0.000 A 
ATOM      8  C   UNL     1     -54.182 -44.539 -61.074  0.00  0.00    +0.000 A 
ATOM      9 CL   UNL     1     -53.419 -45.448 -62.327  0.00  0.00    +0.000 Cl
ATOM     10  C   UNL     1     -54.972 -43.403 -61.304  0.00  0.00    +0.000 A 
ATOM     11  C   UNL     1     -55.352 -42.937 -62.652  0.00  0.00    +0.000 A 
ATOM     12  O   UNL     1     -55.491 -43.715 -63.588  0.00  0.00    +0.000 OA
ATOM     13  C   UNL     1     -55.645 -41.477 -62.835  0.00  0.00    +0.000 A 
ATOM     14  H   UNL     1     -56.453 -40.885 -59.760  0.00  0.00    +0.000 HD
ENDROOT
BRANCH   1  15
ATOM     15  S   UNL     1     -56.663 -39.132 -61.676  0.00  0.00    +0.000 S 
ATOM     16  O   UNL     1     -56.321 -38.765 -60.257  0.00  0.00    +0.000 OA
BRANCH  15  17
ATOM     17  C   UNL     1     -58.453 -38.896 -61.882  0.00  0.00    +0.000 C 
BRANCH  17  21
ATOM     18  C   UNL     1     -61.295 -34.683 -62.503  0.00  0.00    +0.000 C 
ATOM     19  C   UNL     1     -60.311 -35.764 -62.306  0.00  0.00    +0.000 A 
ATOM     20  C   UNL     1     -60.390 -37.129 -62.162  0.00  0.00    +0.000 A 
ATOM     21  C   UNL     1     -59.045 -37.558 -62.107  0.00  0.00    +0.000 A 
ATOM     22  N   UNL     1     -58.212 -36.503 -62.143  0.00  0.00    +0.000 NA
ATOM     23  O   UNL     1     -59.009 -35.385 -62.269  0.00  0.00    +0.000 OA
ENDBRANCH  17  21
ENDBRANCH  15  17
ENDBRANCH   1  15
BRANCH  13  24
ATOM     24  C   UNL     1     -55.042 -40.895 -64.068  0.00  0.00    +0.000 C 
ATOM     25  O   UNL     1     -55.711 -40.750 -65.076  0.00  0.00    +0.000 OA
BRANCH  24  26
ATOM     26  C   UNL     1     -53.635 -40.454 -64.031  0.00  0.00    +0.000 C 
ATOM     27  C   UNL     1     -52.892 -40.236 -65.324  0.00  0.00    +0.000 C 
ATOM     28  C   UNL     1     -52.513 -41.380 -64.434  0.00  0.00    +0.000 C 
ENDBRANCH  24  26
ENDBRANCH  13  24
TORSDOF 5
