REMARK VINA RESULT:    -4.791     15.727     17.915
REMARK INTER + INTRA:          -6.876
REMARK INTER:                  -5.869
REMARK INTRA:                  -1.007
REMARK UNBOUND:                -0.965
REMARK  Name = 
REMARK  6 active torsions:
REMARK  status: ('A' for Active; 'I' for Inactive)
REMARK    1  A    between atoms: C_1  and  C_2
REMARK    2  A    between atoms: C_2  and  C_4
REMARK    3  A    between atoms: C_5  and  S_6
REMARK    4  A    between atoms: S_6  and  C_8
REMARK    5  A    between atoms: C_8  and  C_9
REMARK    6  A    between atoms: C_11  and  C_12
REMARK                            x       y       z     vdW  Elec       q    Type
REMARK                         _______ _______ _______ _____ _____    ______ ____
ROOT
ATOM      1  C   UNL     1     -49.611 -25.312 -61.981  0.00  0.00    +0.000 A 
ATOM      2  C   UNL     1     -48.475 -25.809 -62.523  0.00  0.00    +0.000 A 
ATOM      3  N   UNL     1     -47.917 -25.328 -63.689  0.00  0.00    +0.000 N 
ATOM      4  C   UNL     1     -48.547 -24.365 -64.494  0.00  0.00    +0.000 A 
ATOM      5  C   UNL     1     -47.937 -23.911 -65.681  0.00  0.00    +0.000 A 
ATOM      6 BR   UNL     1     -46.278 -24.631 -66.265  0.00  0.00    +0.000 Br
ATOM      7  C   UNL     1     -48.530 -22.918 -66.459  0.00  0.00    +0.000 A 
ATOM      8  C   UNL     1     -49.741 -22.365 -66.058  0.00  0.00    +0.000 A 
ATOM      9  C   UNL     1     -50.355 -22.782 -64.871  0.00  0.00    +0.000 A 
ATOM     10 CL   UNL     1     -51.860 -22.009 -64.515  0.00  0.00    +0.000 Cl
ATOM     11  C   UNL     1     -49.746 -23.770 -64.070  0.00  0.00    +0.000 A 
ATOM     12  C   UNL     1     -50.317 -24.247 -62.781  0.00  0.00    +0.000 A 
ATOM     13  O   UNL     1     -51.389 -23.801 -62.389  0.00  0.00    +0.000 OA
ATOM     14  H   UNL     1     -47.291 -25.970 -64.178  0.00  0.00    +0.000 HD
ENDROOT
BRANCH   1  16
ATOM     15  C   UNL     1     -51.263 -26.866 -60.706  0.00  0.00    +0.000 C 
ATOM     16  C   UNL     1     -50.217 -25.772 -60.682  0.00  0.00    +0.000 C 
ATOM     17  O   UNL     1     -49.905 -25.269 -59.606  0.00  0.00    +0.000 OA
ENDBRANCH   1  16
BRANCH   2  18
ATOM     18  S   UNL     1     -47.660 -27.292 -61.826  0.00  0.00    +0.000 S 
ATOM     19  O   UNL     1     -47.146 -28.010 -63.044  0.00  0.00    +0.000 OA
BRANCH  18  20
ATOM     20  C   UNL     1     -46.204 -26.496 -61.057  0.00  0.00    +0.000 C 
BRANCH  20  21
ATOM     21  C   UNL     1     -45.006 -26.534 -61.947  0.00  0.00    +0.000 A 
ATOM     22  C   UNL     1     -43.967 -27.499 -62.018  0.00  0.00    +0.000 A 
ATOM     23  C   UNL     1     -43.179 -27.084 -63.063  0.00  0.00    +0.000 A 
ATOM     24  C   UNL     1     -41.951 -27.598 -63.702  0.00  0.00    +0.000 C 
ATOM     25  O   UNL     1     -43.705 -25.949 -63.593  0.00  0.00    +0.000 OA
ATOM     26  N   UNL     1     -44.854 -25.603 -62.901  0.00  0.00    +0.000 NA
ENDBRANCH  20  21
ENDBRANCH  18  20
ENDBRANCH   2  18
TORSDOF 4
