REMARK VINA RESULT:    -5.888      4.103      5.563
REMARK INTER + INTRA:          -8.788
REMARK INTER:                  -8.024
REMARK INTRA:                  -0.764
REMARK UNBOUND:                -1.180
REMARK  Name = 
REMARK  6 active torsions:
REMARK  status: ('A' for Active; 'I' for Inactive)
REMARK    1  A    between atoms: C_1  and  C_2
REMARK    2  A    between atoms: C_2  and  C_4
REMARK    3  A    between atoms: C_5  and  S_6
REMARK    4  A    between atoms: S_6  and  C_8
REMARK    5  A    between atoms: C_8  and  C_9
REMARK    6  A    between atoms: C_12  and  C_13
REMARK                            x       y       z     vdW  Elec       q    Type
REMARK                         _______ _______ _______ _____ _____    ______ ____
ROOT
ATOM      1  C   UNL     1     -57.372 -42.395 -76.211  0.00  0.00    +0.000 A 
ATOM      2  C   UNL     1     -56.206 -43.071 -76.233  0.00  0.00    +0.000 A 
ATOM      3  N   UNL     1     -56.080 -44.328 -76.792  0.00  0.00    +0.000 N 
ATOM      4  C   UNL     1     -57.150 -45.060 -77.315  0.00  0.00    +0.000 A 
ATOM      5  C   UNL     1     -56.959 -46.328 -77.892  0.00  0.00    +0.000 A 
ATOM      6 BR   UNL     1     -55.243 -47.138 -77.937  0.00  0.00    +0.000 Br
ATOM      7  C   UNL     1     -58.026 -47.031 -78.453  0.00  0.00    +0.000 A 
ATOM      8  C   UNL     1     -59.302 -46.472 -78.440  0.00  0.00    +0.000 A 
ATOM      9  C   UNL     1     -59.516 -45.208 -77.879  0.00  0.00    +0.000 A 
ATOM     10 CL   UNL     1     -61.152 -44.648 -77.933  0.00  0.00    +0.000 Cl
ATOM     11  C   UNL     1     -58.437 -44.491 -77.329  0.00  0.00    +0.000 A 
ATOM     12  C   UNL     1     -58.579 -43.129 -76.734  0.00  0.00    +0.000 A 
ATOM     13  O   UNL     1     -59.684 -42.613 -76.629  0.00  0.00    +0.000 OA
ATOM     14  H   UNL     1     -55.186 -44.801 -76.619  0.00  0.00    +0.000 HD
ENDROOT
BRANCH   1  16
ATOM     15  C   UNL     1     -57.788 -40.811 -74.207  0.00  0.00    +0.000 C 
ATOM     16  C   UNL     1     -57.537 -40.999 -75.687  0.00  0.00    +0.000 C 
ATOM     17  O   UNL     1     -57.522 -40.023 -76.437  0.00  0.00    +0.000 OA
ENDBRANCH   1  16
BRANCH   2  18
ATOM     18  S   UNL     1     -54.695 -42.494 -75.396  0.00  0.00    +0.000 S 
ATOM     19  O   UNL     1     -53.707 -43.601 -75.665  0.00  0.00    +0.000 OA
BRANCH  18  20
ATOM     20  C   UNL     1     -54.240 -41.076 -76.456  0.00  0.00    +0.000 C 
BRANCH  20  21
ATOM     21  C   UNL     1     -53.504 -41.495 -77.717  0.00  0.00    +0.000 A 
ATOM     22  C   UNL     1     -54.205 -41.844 -78.882  0.00  0.00    +0.000 A 
ATOM     23  C   UNL     1     -53.528 -42.221 -80.046  0.00  0.00    +0.000 A 
ATOM     24  C   UNL     1     -52.131 -42.238 -80.074  0.00  0.00    +0.000 A 
ATOM     25  C   UNL     1     -51.420 -41.878 -78.923  0.00  0.00    +0.000 A 
ATOM     26  C   UNL     1     -52.100 -41.512 -77.756  0.00  0.00    +0.000 A 
BRANCH  24  27
ATOM     27  C   UNL     1     -51.432 -42.624 -81.270  0.00  0.00    +0.000 C 
ATOM     28  N   UNL     1     -50.865 -42.937 -82.231  0.00  0.00    +0.000 NA
ENDBRANCH  24  27
ENDBRANCH  20  21
ENDBRANCH  18  20
ENDBRANCH   2  18
TORSDOF 5
