REMARK VINA RESULT:    -5.718     14.854     15.759
REMARK INTER + INTRA:          -7.815
REMARK INTER:                  -6.873
REMARK INTRA:                  -0.941
REMARK UNBOUND:                -0.760
REMARK  Name = 
REMARK  6 active torsions:
REMARK  status: ('A' for Active; 'I' for Inactive)
REMARK    1  A    between atoms: C_1  and  C_2
REMARK    2  A    between atoms: C_2  and  C_4
REMARK    3  A    between atoms: C_5  and  S_6
REMARK    4  A    between atoms: S_6  and  C_8
REMARK    5  A    between atoms: C_8  and  C_9
REMARK    6  A    between atoms: C_11  and  C_12
REMARK                            x       y       z     vdW  Elec       q    Type
REMARK                         _______ _______ _______ _____ _____    ______ ____
ROOT
ATOM      1  C   UNL     1     -56.076 -44.365 -78.487  0.00  0.00    +0.000 A 
ATOM      2  C   UNL     1     -55.493 -43.143 -78.441  0.00  0.00    +0.000 A 
ATOM      3  N   UNL     1     -54.456 -42.833 -77.586  0.00  0.00    +0.000 N 
ATOM      4  C   UNL     1     -53.963 -43.727 -76.623  0.00  0.00    +0.000 A 
ATOM      5  C   UNL     1     -52.858 -43.384 -75.820  0.00  0.00    +0.000 A 
ATOM      6 BR   UNL     1     -52.023 -41.685 -75.980  0.00  0.00    +0.000 Br
ATOM      7  C   UNL     1     -52.333 -44.287 -74.898  0.00  0.00    +0.000 A 
ATOM      8  C   UNL     1     -52.912 -45.546 -74.761  0.00  0.00    +0.000 A 
ATOM      9  C   UNL     1     -53.997 -45.918 -75.566  0.00  0.00    +0.000 A 
ATOM     10 CL   UNL     1     -54.611 -47.508 -75.275  0.00  0.00    +0.000 Cl
ATOM     11  C   UNL     1     -54.505 -45.020 -76.523  0.00  0.00    +0.000 A 
ATOM     12  C   UNL     1     -55.618 -45.357 -77.450  0.00  0.00    +0.000 A 
ATOM     13  O   UNL     1     -56.197 -46.432 -77.353  0.00  0.00    +0.000 OA
ATOM     14  H   UNL     1     -54.319 -41.842 -77.388  0.00  0.00    +0.000 HD
ENDROOT
BRANCH   1  16
ATOM     15  C   UNL     1     -58.594 -44.603 -79.052  0.00  0.00    +0.000 C 
ATOM     16  C   UNL     1     -57.148 -44.771 -79.461  0.00  0.00    +0.000 C 
ATOM     17  O   UNL     1     -56.879 -45.264 -80.559  0.00  0.00    +0.000 OA
ENDBRANCH   1  16
BRANCH   2  18
ATOM     18  S   UNL     1     -56.138 -41.752 -79.430  0.00  0.00    +0.000 S 
ATOM     19  O   UNL     1     -57.070 -41.050 -78.479  0.00  0.00    +0.000 OA
BRANCH  18  20
ATOM     20  C   UNL     1     -54.626 -40.725 -79.505  0.00  0.00    +0.000 C 
BRANCH  20  21
ATOM     21  C   UNL     1     -53.605 -41.307 -80.422  0.00  0.00    +0.000 A 
ATOM     22  C   UNL     1     -53.548 -41.260 -81.838  0.00  0.00    +0.000 A 
ATOM     23  C   UNL     1     -52.358 -41.869 -82.156  0.00  0.00    +0.000 A 
ATOM     24  C   UNL     1     -51.649 -42.155 -83.417  0.00  0.00    +0.000 C 
ATOM     25  O   UNL     1     -51.741 -42.262 -81.010  0.00  0.00    +0.000 OA
ATOM     26  N   UNL     1     -52.516 -41.907 -79.920  0.00  0.00    +0.000 NA
ENDBRANCH  20  21
ENDBRANCH  18  20
ENDBRANCH   2  18
TORSDOF 4
