REMARK VINA RESULT:    -6.555      2.654      4.308
REMARK INTER + INTRA:          -9.429
REMARK INTER:                  -8.441
REMARK INTRA:                  -0.987
REMARK UNBOUND:                -0.957
REMARK  Name = 
REMARK  6 active torsions:
REMARK  status: ('A' for Active; 'I' for Inactive)
REMARK    1  A    between atoms: C_1  and  C_2
REMARK    2  A    between atoms: C_4  and  C_5
REMARK    3  A    between atoms: C_5  and  S_6
REMARK    4  A    between atoms: S_6  and  C_8
REMARK    5  A    between atoms: C_20  and  C_21
REMARK    6  A    between atoms: C_21  and  C_23
REMARK                            x       y       z     vdW  Elec       q    Type
REMARK                         _______ _______ _______ _____ _____    ______ ____
ROOT
ATOM      1  C   UNL     1     -56.250 -42.553 -62.912  0.00  0.00    +0.000 A 
ATOM      2  N   UNL     1     -55.241 -43.528 -63.025  0.00  0.00    +0.000 N 
ATOM      3  C   UNL     1     -53.908 -43.155 -63.350  0.00  0.00    +0.000 A 
ATOM      4  C   UNL     1     -52.797 -43.984 -63.103  0.00  0.00    +0.000 A 
ATOM      5 BR   UNL     1     -52.982 -45.609 -62.142  0.00  0.00    +0.000 Br
ATOM      6  C   UNL     1     -51.514 -43.625 -63.538  0.00  0.00    +0.000 A 
ATOM      7  C   UNL     1     -51.323 -42.409 -64.205  0.00  0.00    +0.000 A 
ATOM      8  C   UNL     1     -52.409 -41.571 -64.459  0.00  0.00    +0.000 A 
ATOM      9 CL   UNL     1     -52.058 -40.063 -65.224  0.00  0.00    +0.000 Cl
ATOM     10  C   UNL     1     -53.694 -41.958 -64.051  0.00  0.00    +0.000 A 
ATOM     11  C   UNL     1     -54.911 -41.179 -64.350  0.00  0.00    +0.000 A 
ATOM     12  O   UNL     1     -55.005 -40.492 -65.359  0.00  0.00    +0.000 OA
ATOM     13  C   UNL     1     -56.078 -41.311 -63.416  0.00  0.00    +0.000 A 
ATOM     14  H   UNL     1     -55.304 -44.241 -62.286  0.00  0.00    +0.000 HD
ENDROOT
BRANCH   1  15
ATOM     15  S   UNL     1     -57.511 -42.994 -61.687  0.00  0.00    +0.000 S 
ATOM     16  O   UNL     1     -58.815 -42.755 -62.396  0.00  0.00    +0.000 OA
BRANCH  15  17
ATOM     17  C   UNL     1     -57.431 -41.835 -60.290  0.00  0.00    +0.000 C 
BRANCH  17  21
ATOM     18  C   UNL     1     -53.886 -43.127 -56.828  0.00  0.00    +0.000 C 
ATOM     19  C   UNL     1     -54.836 -42.556 -57.801  0.00  0.00    +0.000 A 
ATOM     20  C   UNL     1     -55.772 -43.080 -58.661  0.00  0.00    +0.000 A 
ATOM     21  C   UNL     1     -56.398 -41.951 -59.234  0.00  0.00    +0.000 A 
ATOM     22  N   UNL     1     -55.823 -40.818 -58.795  0.00  0.00    +0.000 NA
ATOM     23  O   UNL     1     -54.848 -41.202 -57.898  0.00  0.00    +0.000 OA
ENDBRANCH  17  21
ENDBRANCH  15  17
ENDBRANCH   1  15
BRANCH  13  24
ATOM     24  C   UNL     1     -56.728 -40.012 -63.082  0.00  0.00    +0.000 C 
ATOM     25  O   UNL     1     -57.904 -39.823 -63.339  0.00  0.00    +0.000 OA
BRANCH  24  26
ATOM     26  C   UNL     1     -55.935 -38.976 -62.392  0.00  0.00    +0.000 C 
ATOM     27  C   UNL     1     -56.560 -37.636 -62.101  0.00  0.00    +0.000 C 
ATOM     28  C   UNL     1     -55.464 -37.738 -63.118  0.00  0.00    +0.000 C 
ENDBRANCH  24  26
ENDBRANCH  13  24
TORSDOF 5
