REMARK VINA RESULT:    -7.091     12.074     13.609
REMARK INTER + INTRA:          -9.863
REMARK INTER:                  -8.910
REMARK INTRA:                  -0.954
REMARK UNBOUND:                -0.699
REMARK  Name = 
REMARK  8 active torsions:
REMARK  status: ('A' for Active; 'I' for Inactive)
REMARK    1  A    between atoms: C_1  and  C_2
REMARK    2  A    between atoms: C_4  and  C_5
REMARK    3  A    between atoms: C_5  and  S_6
REMARK    4  A    between atoms: S_6  and  C_8
REMARK    5  A    between atoms: C_20  and  C_21
REMARK    6  A    between atoms: C_21  and  C_23
REMARK    7  A    between atoms: C_23  and  C_24
REMARK    8  A    between atoms: C_23  and  C_25
REMARK                            x       y       z     vdW  Elec       q    Type
REMARK                         _______ _______ _______ _____ _____    ______ ____
ROOT
ATOM      1  C   UNL     1     -55.666 -42.663 -76.705  0.00  0.00    +0.000 A 
ATOM      2  N   UNL     1     -54.341 -42.990 -76.433  0.00  0.00    +0.000 N 
ATOM      3  C   UNL     1     -53.346 -42.001 -76.310  0.00  0.00    +0.000 A 
ATOM      4  C   UNL     1     -52.130 -42.240 -75.643  0.00  0.00    +0.000 A 
ATOM      5 BR   UNL     1     -51.826 -43.870 -74.723  0.00  0.00    +0.000 Br
ATOM      6  C   UNL     1     -51.128 -41.266 -75.604  0.00  0.00    +0.000 A 
ATOM      7  C   UNL     1     -51.329 -40.037 -76.226  0.00  0.00    +0.000 A 
ATOM      8  C   UNL     1     -52.540 -39.775 -76.892  0.00  0.00    +0.000 A 
ATOM      9 CL   UNL     1     -52.701 -38.193 -77.563  0.00  0.00    +0.000 Cl
ATOM     10  C   UNL     1     -53.548 -40.760 -76.938  0.00  0.00    +0.000 A 
ATOM     11  C   UNL     1     -54.846 -40.594 -77.641  0.00  0.00    +0.000 A 
ATOM     12  O   UNL     1     -54.948 -39.789 -78.562  0.00  0.00    +0.000 OA
ATOM     13  C   UNL     1     -56.027 -41.457 -77.206  0.00  0.00    +0.000 A 
ATOM     14  H   UNL     1     -54.231 -43.818 -75.832  0.00  0.00    +0.000 HD
ENDROOT
BRANCH   1  15
ATOM     15  S   UNL     1     -56.815 -43.957 -76.103  0.00  0.00    +0.000 S 
ATOM     16  O   UNL     1     -57.425 -43.350 -74.869  0.00  0.00    +0.000 OA
BRANCH  15  17
ATOM     17  C   UNL     1     -55.696 -45.305 -75.591  0.00  0.00    +0.000 C 
BRANCH  17  21
ATOM     18  C   UNL     1     -55.416 -49.914 -77.931  0.00  0.00    +0.000 C 
ATOM     19  C   UNL     1     -55.638 -48.549 -77.406  0.00  0.00    +0.000 A 
ATOM     20  C   UNL     1     -55.215 -47.851 -76.298  0.00  0.00    +0.000 A 
ATOM     21  C   UNL     1     -55.792 -46.555 -76.433  0.00  0.00    +0.000 A 
ATOM     22  N   UNL     1     -56.533 -46.502 -77.553  0.00  0.00    +0.000 NA
ATOM     23  O   UNL     1     -56.432 -47.742 -78.155  0.00  0.00    +0.000 OA
ENDBRANCH  17  21
ENDBRANCH  15  17
ENDBRANCH   1  15
BRANCH  13  24
ATOM     24  C   UNL     1     -57.404 -40.849 -77.352  0.00  0.00    +0.000 C 
ATOM     25  O   UNL     1     -57.738 -39.897 -76.648  0.00  0.00    +0.000 OA
BRANCH  24  26
ATOM     26  C   UNL     1     -58.415 -41.452 -78.328  0.00  0.00    +0.000 C 
ATOM     27  C   UNL     1     -59.607 -40.525 -78.553  0.00  0.00    +0.000 C 
ATOM     28  C   UNL     1     -57.770 -41.822 -79.666  0.00  0.00    +0.000 C 
ENDBRANCH  24  26
ENDBRANCH  13  24
TORSDOF 5
