REMARK VINA RESULT:    -4.871      3.927      5.787
REMARK INTER + INTRA:          -7.337
REMARK INTER:                  -6.359
REMARK INTRA:                  -0.978
REMARK UNBOUND:                -1.042
REMARK  Name = 
REMARK  8 active torsions:
REMARK  status: ('A' for Active; 'I' for Inactive)
REMARK    1  A    between atoms: C_1  and  C_2
REMARK    2  A    between atoms: C_4  and  C_5
REMARK    3  A    between atoms: C_5  and  S_6
REMARK    4  A    between atoms: S_6  and  C_8
REMARK    5  A    between atoms: C_20  and  C_21
REMARK    6  A    between atoms: C_21  and  C_23
REMARK    7  A    between atoms: C_23  and  C_24
REMARK    8  A    between atoms: C_23  and  C_25
REMARK                            x       y       z     vdW  Elec       q    Type
REMARK                         _______ _______ _______ _____ _____    ______ ____
ROOT
ATOM      1  C   UNL     1     -56.411 -41.132 -60.697  0.00  0.00    +0.000 A 
ATOM      2  N   UNL     1     -56.345 -39.936 -61.405  0.00  0.00    +0.000 N 
ATOM      3  C   UNL     1     -55.632 -38.825 -60.914  0.00  0.00    +0.000 A 
ATOM      4  C   UNL     1     -55.198 -37.782 -61.754  0.00  0.00    +0.000 A 
ATOM      5 BR   UNL     1     -55.409 -37.893 -63.636  0.00  0.00    +0.000 Br
ATOM      6  C   UNL     1     -54.561 -36.654 -61.229  0.00  0.00    +0.000 A 
ATOM      7  C   UNL     1     -54.344 -36.554 -59.858  0.00  0.00    +0.000 A 
ATOM      8  C   UNL     1     -54.763 -37.589 -59.002  0.00  0.00    +0.000 A 
ATOM      9 CL   UNL     1     -54.375 -37.385 -57.332  0.00  0.00    +0.000 Cl
ATOM     10  C   UNL     1     -55.412 -38.724 -59.531  0.00  0.00    +0.000 A 
ATOM     11  C   UNL     1     -55.921 -39.852 -58.709  0.00  0.00    +0.000 A 
ATOM     12  O   UNL     1     -56.192 -39.678 -57.525  0.00  0.00    +0.000 OA
ATOM     13  C   UNL     1     -56.115 -41.210 -59.378  0.00  0.00    +0.000 A 
ATOM     14  H   UNL     1     -56.346 -40.056 -62.428  0.00  0.00    +0.000 HD
ENDROOT
BRANCH   1  15
ATOM     15  S   UNL     1     -56.724 -42.555 -61.809  0.00  0.00    +0.000 S 
ATOM     16  O   UNL     1     -55.425 -42.726 -62.548  0.00  0.00    +0.000 OA
BRANCH  15  17
ATOM     17  C   UNL     1     -57.972 -41.910 -62.974  0.00  0.00    +0.000 C 
BRANCH  17  21
ATOM     18  C   UNL     1     -56.967 -43.477 -67.804  0.00  0.00    +0.000 C 
ATOM     19  C   UNL     1     -57.214 -42.838 -66.493  0.00  0.00    +0.000 A 
ATOM     20  C   UNL     1     -57.685 -43.268 -65.273  0.00  0.00    +0.000 A 
ATOM     21  C   UNL     1     -57.637 -42.119 -64.432  0.00  0.00    +0.000 A 
ATOM     22  N   UNL     1     -57.181 -41.063 -65.129  0.00  0.00    +0.000 NA
ATOM     23  O   UNL     1     -56.917 -41.516 -66.407  0.00  0.00    +0.000 OA
ENDBRANCH  17  21
ENDBRANCH  15  17
ENDBRANCH   1  15
BRANCH  13  24
ATOM     24  C   UNL     1     -55.916 -42.431 -58.507  0.00  0.00    +0.000 C 
ATOM     25  O   UNL     1     -56.874 -42.942 -57.928  0.00  0.00    +0.000 OA
BRANCH  24  26
ATOM     26  C   UNL     1     -54.514 -43.001 -58.285  0.00  0.00    +0.000 C 
ATOM     27  C   UNL     1     -54.246 -43.285 -56.809  0.00  0.00    +0.000 C 
ATOM     28  C   UNL     1     -54.269 -44.260 -59.121  0.00  0.00    +0.000 C 
ENDBRANCH  24  26
ENDBRANCH  13  24
TORSDOF 5
