REMARK VINA RESULT:    -5.280      3.617      6.004
REMARK INTER + INTRA:          -7.479
REMARK INTER:                  -6.472
REMARK INTRA:                  -1.007
REMARK UNBOUND:                -0.965
REMARK  Name = 
REMARK  6 active torsions:
REMARK  status: ('A' for Active; 'I' for Inactive)
REMARK    1  A    between atoms: C_1  and  C_2
REMARK    2  A    between atoms: C_2  and  C_4
REMARK    3  A    between atoms: C_5  and  S_6
REMARK    4  A    between atoms: S_6  and  C_8
REMARK    5  A    between atoms: C_8  and  C_9
REMARK    6  A    between atoms: C_11  and  C_12
REMARK                            x       y       z     vdW  Elec       q    Type
REMARK                         _______ _______ _______ _____ _____    ______ ____
ROOT
ATOM      1  C   UNL     1     -55.556 -37.311 -62.671  0.00  0.00    +0.000 A 
ATOM      2  C   UNL     1     -56.467 -38.151 -62.125  0.00  0.00    +0.000 A 
ATOM      3  N   UNL     1     -56.418 -39.521 -62.272  0.00  0.00    +0.000 N 
ATOM      4  C   UNL     1     -55.494 -40.166 -63.111  0.00  0.00    +0.000 A 
ATOM      5  C   UNL     1     -55.491 -41.570 -63.231  0.00  0.00    +0.000 A 
ATOM      6 BR   UNL     1     -56.773 -42.633 -62.315  0.00  0.00    +0.000 Br
ATOM      7  C   UNL     1     -54.546 -42.221 -64.021  0.00  0.00    +0.000 A 
ATOM      8  C   UNL     1     -53.589 -41.475 -64.700  0.00  0.00    +0.000 A 
ATOM      9  C   UNL     1     -53.557 -40.081 -64.579  0.00  0.00    +0.000 A 
ATOM     10 CL   UNL     1     -52.317 -39.294 -65.493  0.00  0.00    +0.000 Cl
ATOM     11  C   UNL     1     -54.498 -39.421 -63.762  0.00  0.00    +0.000 A 
ATOM     12  C   UNL     1     -54.514 -37.947 -63.556  0.00  0.00    +0.000 A 
ATOM     13  O   UNL     1     -53.701 -37.242 -64.142  0.00  0.00    +0.000 OA
ATOM     14  H   UNL     1     -57.301 -40.014 -62.129  0.00  0.00    +0.000 HD
ENDROOT
BRANCH   1  16
ATOM     15  C   UNL     1     -54.746 -35.225 -61.345  0.00  0.00    +0.000 C 
ATOM     16  C   UNL     1     -55.545 -35.817 -62.485  0.00  0.00    +0.000 C 
ATOM     17  O   UNL     1     -56.185 -35.068 -63.218  0.00  0.00    +0.000 OA
ENDBRANCH   1  16
BRANCH   2  18
ATOM     18  S   UNL     1     -57.952 -37.513 -61.268  0.00  0.00    +0.000 S 
ATOM     19  O   UNL     1     -58.841 -37.069 -62.397  0.00  0.00    +0.000 OA
BRANCH  18  20
ATOM     20  C   UNL     1     -58.650 -39.094 -60.668  0.00  0.00    +0.000 C 
BRANCH  20  21
ATOM     21  C   UNL     1     -59.815 -39.542 -61.488  0.00  0.00    +0.000 A 
ATOM     22  C   UNL     1     -61.195 -39.250 -61.326  0.00  0.00    +0.000 A 
ATOM     23  C   UNL     1     -61.804 -39.845 -62.403  0.00  0.00    +0.000 A 
ATOM     24  C   UNL     1     -63.198 -39.946 -62.880  0.00  0.00    +0.000 C 
ATOM     25  O   UNL     1     -60.859 -40.453 -63.168  0.00  0.00    +0.000 OA
ATOM     26  N   UNL     1     -59.610 -40.260 -62.602  0.00  0.00    +0.000 NA
ENDBRANCH  20  21
ENDBRANCH  18  20
ENDBRANCH   2  18
TORSDOF 4
