REMARK VINA RESULT:    -6.096      3.712      4.879
REMARK INTER + INTRA:          -8.563
REMARK INTER:                  -7.836
REMARK INTRA:                  -0.727
REMARK UNBOUND:                -1.042
REMARK  Name = 
REMARK  6 active torsions:
REMARK  status: ('A' for Active; 'I' for Inactive)
REMARK    1  A    between atoms: C_1  and  C_2
REMARK    2  A    between atoms: C_2  and  C_4
REMARK    3  A    between atoms: C_5  and  S_6
REMARK    4  A    between atoms: S_6  and  C_8
REMARK    5  A    between atoms: C_8  and  C_9
REMARK    6  A    between atoms: C_11  and  C_12
REMARK                            x       y       z     vdW  Elec       q    Type
REMARK                         _______ _______ _______ _____ _____    ______ ____
ROOT
ATOM      1  C   UNL     1     -53.361 -41.427 -77.970  0.00  0.00    +0.000 A 
ATOM      2  C   UNL     1     -54.680 -41.211 -78.172  0.00  0.00    +0.000 A 
ATOM      3  N   UNL     1     -55.308 -41.425 -79.383  0.00  0.00    +0.000 N 
ATOM      4  C   UNL     1     -54.616 -41.788 -80.547  0.00  0.00    +0.000 A 
ATOM      5  C   UNL     1     -55.305 -42.005 -81.757  0.00  0.00    +0.000 A 
ATOM      6 BR   UNL     1     -57.185 -41.738 -81.868  0.00  0.00    +0.000 Br
ATOM      7  C   UNL     1     -54.635 -42.423 -82.901  0.00  0.00    +0.000 A 
ATOM      8  C   UNL     1     -53.261 -42.640 -82.853  0.00  0.00    +0.000 A 
ATOM      9  C   UNL     1     -52.554 -42.450 -81.658  0.00  0.00    +0.000 A 
ATOM     10 CL   UNL     1     -50.854 -42.745 -81.758  0.00  0.00    +0.000 Cl
ATOM     11  C   UNL     1     -53.236 -42.043 -80.493  0.00  0.00    +0.000 A 
ATOM     12  C   UNL     1     -52.562 -41.832 -79.181  0.00  0.00    +0.000 A 
ATOM     13  O   UNL     1     -51.346 -41.949 -79.093  0.00  0.00    +0.000 OA
ATOM     14  H   UNL     1     -56.191 -40.932 -79.522  0.00  0.00    +0.000 HD
ENDROOT
BRANCH   1  16
ATOM     15  C   UNL     1     -52.621 -42.419 -75.682  0.00  0.00    +0.000 C 
ATOM     16  C   UNL     1     -52.658 -41.256 -76.647  0.00  0.00    +0.000 C 
ATOM     17  O   UNL     1     -52.135 -40.191 -76.324  0.00  0.00    +0.000 OA
ENDBRANCH   1  16
BRANCH   2  18
ATOM     18  S   UNL     1     -55.729 -40.472 -76.876  0.00  0.00    +0.000 S 
ATOM     19  O   UNL     1     -56.944 -40.000 -77.633  0.00  0.00    +0.000 OA
BRANCH  18  20
ATOM     20  C   UNL     1     -56.238 -41.996 -76.005  0.00  0.00    +0.000 C 
BRANCH  20  21
ATOM     21  C   UNL     1     -56.568 -41.757 -74.569  0.00  0.00    +0.000 A 
ATOM     22  C   UNL     1     -55.980 -42.293 -73.393  0.00  0.00    +0.000 A 
ATOM     23  C   UNL     1     -56.659 -41.695 -72.361  0.00  0.00    +0.000 A 
ATOM     24  C   UNL     1     -56.606 -41.800 -70.891  0.00  0.00    +0.000 C 
ATOM     25  O   UNL     1     -57.571 -40.828 -72.874  0.00  0.00    +0.000 OA
ATOM     26  N   UNL     1     -57.513 -40.857 -74.255  0.00  0.00    +0.000 NA
ENDBRANCH  20  21
ENDBRANCH  18  20
ENDBRANCH   2  18
TORSDOF 4
