REMARK VINA RESULT:    -5.550     24.695     26.827
REMARK INTER + INTRA:          -8.064
REMARK INTER:                  -7.394
REMARK INTRA:                  -0.670
REMARK UNBOUND:                -0.891
REMARK  Name = 
REMARK  6 active torsions:
REMARK  status: ('A' for Active; 'I' for Inactive)
REMARK    1  A    between atoms: C_1  and  C_2
REMARK    2  A    between atoms: C_4  and  C_5
REMARK    3  A    between atoms: C_5  and  S_6
REMARK    4  A    between atoms: S_6  and  C_8
REMARK    5  A    between atoms: C_20  and  C_21
REMARK    6  A    between atoms: C_21  and  C_23
REMARK                            x       y       z     vdW  Elec       q    Type
REMARK                         _______ _______ _______ _____ _____    ______ ____
ROOT
ATOM      1  C   UNL     1     -66.072 -50.409 -54.037  0.00  0.00    +0.000 A 
ATOM      2  N   UNL     1     -66.216 -49.722 -55.258  0.00  0.00    +0.000 N 
ATOM      3  C   UNL     1     -67.484 -49.635 -55.894  0.00  0.00    +0.000 A 
ATOM      4  C   UNL     1     -67.788 -48.669 -56.873  0.00  0.00    +0.000 A 
ATOM      5 BR   UNL     1     -66.565 -47.281 -57.291  0.00  0.00    +0.000 Br
ATOM      6  C   UNL     1     -69.013 -48.688 -57.554  0.00  0.00    +0.000 A 
ATOM      7  C   UNL     1     -69.965 -49.664 -57.240  0.00  0.00    +0.000 A 
ATOM      8  C   UNL     1     -69.688 -50.630 -56.272  0.00  0.00    +0.000 A 
ATOM      9 CL   UNL     1     -70.955 -51.745 -55.907  0.00  0.00    +0.000 Cl
ATOM     10  C   UNL     1     -68.444 -50.622 -55.623  0.00  0.00    +0.000 A 
ATOM     11  C   UNL     1     -68.029 -51.651 -54.650  0.00  0.00    +0.000 A 
ATOM     12  O   UNL     1     -68.434 -52.805 -54.719  0.00  0.00    +0.000 OA
ATOM     13  C   UNL     1     -67.023 -51.267 -53.606  0.00  0.00    +0.000 A 
ATOM     14  H   UNL     1     -65.683 -48.841 -55.274  0.00  0.00    +0.000 HD
ENDROOT
BRANCH   1  15
ATOM     15  S   UNL     1     -64.785 -49.692 -52.982  0.00  0.00    +0.000 S 
ATOM     16  O   UNL     1     -64.180 -50.877 -52.281  0.00  0.00    +0.000 OA
BRANCH  15  17
ATOM     17  C   UNL     1     -65.555 -48.645 -51.712  0.00  0.00    +0.000 C 
BRANCH  17  21
ATOM     18  C   UNL     1     -62.419 -44.951 -50.056  0.00  0.00    +0.000 C 
ATOM     19  C   UNL     1     -63.477 -45.869 -50.516  0.00  0.00    +0.000 A 
ATOM     20  C   UNL     1     -63.497 -47.156 -51.001  0.00  0.00    +0.000 A 
ATOM     21  C   UNL     1     -64.869 -47.455 -51.158  0.00  0.00    +0.000 A 
ATOM     22  N   UNL     1     -65.623 -46.384 -50.852  0.00  0.00    +0.000 NA
ATOM     23  O   UNL     1     -64.748 -45.397 -50.450  0.00  0.00    +0.000 OA
ENDBRANCH  17  21
ENDBRANCH  15  17
ENDBRANCH   1  15
BRANCH  13  24
ATOM     24  C   UNL     1     -67.355 -51.766 -52.241  0.00  0.00    +0.000 C 
ATOM     25  O   UNL     1     -68.270 -51.270 -51.606  0.00  0.00    +0.000 OA
BRANCH  24  26
ATOM     26  C   UNL     1     -66.589 -52.901 -51.693  0.00  0.00    +0.000 C 
ATOM     27  C   UNL     1     -65.849 -53.818 -52.632  0.00  0.00    +0.000 C 
ATOM     28  C   UNL     1     -67.049 -54.326 -51.893  0.00  0.00    +0.000 C 
ENDBRANCH  24  26
ENDBRANCH  13  24
TORSDOF 5
