REMARK VINA RESULT:    -6.640     11.697     14.693
REMARK INTER + INTRA:          -9.488
REMARK INTER:                  -8.654
REMARK INTRA:                  -0.834
REMARK UNBOUND:                -0.908
REMARK  Name = 
REMARK  6 active torsions:
REMARK  status: ('A' for Active; 'I' for Inactive)
REMARK    1  A    between atoms: C_1  and  C_2
REMARK    2  A    between atoms: C_4  and  C_5
REMARK    3  A    between atoms: C_5  and  S_6
REMARK    4  A    between atoms: S_6  and  C_8
REMARK    5  A    between atoms: C_20  and  C_21
REMARK    6  A    between atoms: C_21  and  C_23
REMARK                            x       y       z     vdW  Elec       q    Type
REMARK                         _______ _______ _______ _____ _____    ______ ____
ROOT
ATOM      1  C   UNL     1     -56.045 -42.685 -61.896  0.00  0.00    +0.000 A 
ATOM      2  N   UNL     1     -56.575 -42.449 -60.613  0.00  0.00    +0.000 N 
ATOM      3  C   UNL     1     -57.924 -42.030 -60.453  0.00  0.00    +0.000 A 
ATOM      4  C   UNL     1     -58.627 -42.151 -59.239  0.00  0.00    +0.000 A 
ATOM      5 BR   UNL     1     -57.869 -43.057 -57.755  0.00  0.00    +0.000 Br
ATOM      6  C   UNL     1     -59.918 -41.625 -59.093  0.00  0.00    +0.000 A 
ATOM      7  C   UNL     1     -60.535 -40.993 -60.179  0.00  0.00    +0.000 A 
ATOM      8  C   UNL     1     -59.860 -40.864 -61.393  0.00  0.00    +0.000 A 
ATOM      9 CL   UNL     1     -60.734 -40.134 -62.691  0.00  0.00    +0.000 Cl
ATOM     10  C   UNL     1     -58.554 -41.362 -61.515  0.00  0.00    +0.000 A 
ATOM     11  C   UNL     1     -57.731 -41.196 -62.729  0.00  0.00    +0.000 A 
ATOM     12  O   UNL     1     -57.856 -40.226 -63.465  0.00  0.00    +0.000 OA
ATOM     13  C   UNL     1     -56.666 -42.218 -63.002  0.00  0.00    +0.000 A 
ATOM     14  H   UNL     1     -56.279 -43.162 -59.932  0.00  0.00    +0.000 HD
ENDROOT
BRANCH   1  15
ATOM     15  S   UNL     1     -54.789 -43.991 -61.902  0.00  0.00    +0.000 S 
ATOM     16  O   UNL     1     -54.459 -44.192 -60.448  0.00  0.00    +0.000 OA
BRANCH  15  17
ATOM     17  C   UNL     1     -53.286 -43.385 -62.722  0.00  0.00    +0.000 C 
BRANCH  17  21
ATOM     18  C   UNL     1     -49.333 -45.821 -64.880  0.00  0.00    +0.000 C 
ATOM     19  C   UNL     1     -50.527 -45.310 -64.181  0.00  0.00    +0.000 A 
ATOM     20  C   UNL     1     -51.064 -44.062 -63.971  0.00  0.00    +0.000 A 
ATOM     21  C   UNL     1     -52.281 -44.308 -63.297  0.00  0.00    +0.000 A 
ATOM     22  N   UNL     1     -52.428 -45.623 -63.055  0.00  0.00    +0.000 NA
ATOM     23  O   UNL     1     -51.330 -46.244 -63.612  0.00  0.00    +0.000 OA
ENDBRANCH  17  21
ENDBRANCH  15  17
ENDBRANCH   1  15
BRANCH  13  24
ATOM     24  C   UNL     1     -56.608 -42.656 -64.425  0.00  0.00    +0.000 C 
ATOM     25  O   UNL     1     -55.610 -42.453 -65.095  0.00  0.00    +0.000 OA
BRANCH  24  26
ATOM     26  C   UNL     1     -57.759 -43.382 -64.994  0.00  0.00    +0.000 C 
ATOM     27  C   UNL     1     -57.750 -43.760 -66.453  0.00  0.00    +0.000 C 
ATOM     28  C   UNL     1     -58.704 -42.714 -65.964  0.00  0.00    +0.000 C 
ENDBRANCH  24  26
ENDBRANCH  13  24
TORSDOF 5
