REMARK VINA RESULT:    -5.696      3.740      5.390
REMARK INTER + INTRA:          -8.303
REMARK INTER:                  -7.528
REMARK INTRA:                  -0.775
REMARK UNBOUND:                -0.943
REMARK  Name = 
REMARK  6 active torsions:
REMARK  status: ('A' for Active; 'I' for Inactive)
REMARK    1  A    between atoms: C_1  and  C_2
REMARK    2  A    between atoms: C_4  and  C_5
REMARK    3  A    between atoms: C_5  and  S_6
REMARK    4  A    between atoms: S_6  and  C_8
REMARK    5  A    between atoms: C_20  and  C_21
REMARK    6  A    between atoms: C_21  and  C_23
REMARK                            x       y       z     vdW  Elec       q    Type
REMARK                         _______ _______ _______ _____ _____    ______ ____
ROOT
ATOM      1  C   UNL     1     -56.181 -44.065 -78.032  0.00  0.00    +0.000 A 
ATOM      2  N   UNL     1     -55.452 -45.098 -77.409  0.00  0.00    +0.000 N 
ATOM      3  C   UNL     1     -54.415 -44.795 -76.484  0.00  0.00    +0.000 A 
ATOM      4  C   UNL     1     -53.922 -45.727 -75.552  0.00  0.00    +0.000 A 
ATOM      5 BR   UNL     1     -54.739 -47.425 -75.339  0.00  0.00    +0.000 Br
ATOM      6  C   UNL     1     -52.825 -45.423 -74.734  0.00  0.00    +0.000 A 
ATOM      7  C   UNL     1     -52.223 -44.162 -74.822  0.00  0.00    +0.000 A 
ATOM      8  C   UNL     1     -52.696 -43.221 -75.737  0.00  0.00    +0.000 A 
ATOM      9 CL   UNL     1     -51.933 -41.673 -75.717  0.00  0.00    +0.000 Cl
ATOM     10  C   UNL     1     -53.772 -43.551 -76.576  0.00  0.00    +0.000 A 
ATOM     11  C   UNL     1     -54.284 -42.654 -77.630  0.00  0.00    +0.000 A 
ATOM     12  O   UNL     1     -53.555 -41.861 -78.212  0.00  0.00    +0.000 OA
ATOM     13  C   UNL     1     -55.721 -42.794 -78.035  0.00  0.00    +0.000 A 
ATOM     14  H   UNL     1     -56.055 -45.878 -77.115  0.00  0.00    +0.000 HD
ENDROOT
BRANCH   1  15
ATOM     15  S   UNL     1     -57.896 -44.536 -78.379  0.00  0.00    +0.000 S 
ATOM     16  O   UNL     1     -58.704 -43.747 -77.386  0.00  0.00    +0.000 OA
BRANCH  15  17
ATOM     17  C   UNL     1     -58.131 -46.296 -77.996  0.00  0.00    +0.000 C 
BRANCH  17  21
ATOM     18  C   UNL     1     -62.330 -49.159 -78.619  0.00  0.00    +0.000 C 
ATOM     19  C   UNL     1     -61.178 -48.239 -78.621  0.00  0.00    +0.000 A 
ATOM     20  C   UNL     1     -60.153 -47.971 -77.745  0.00  0.00    +0.000 A 
ATOM     21  C   UNL     1     -59.341 -47.036 -78.424  0.00  0.00    +0.000 A 
ATOM     22  N   UNL     1     -59.887 -46.709 -79.608  0.00  0.00    +0.000 NA
ATOM     23  O   UNL     1     -61.035 -47.465 -79.727  0.00  0.00    +0.000 OA
ENDBRANCH  17  21
ENDBRANCH  15  17
ENDBRANCH   1  15
BRANCH  13  24
ATOM     24  C   UNL     1     -56.427 -41.492 -78.200  0.00  0.00    +0.000 C 
ATOM     25  O   UNL     1     -56.955 -41.203 -79.261  0.00  0.00    +0.000 OA
BRANCH  24  26
ATOM     26  C   UNL     1     -56.516 -40.580 -77.045  0.00  0.00    +0.000 C 
ATOM     27  C   UNL     1     -56.916 -41.126 -75.698  0.00  0.00    +0.000 C 
ATOM     28  C   UNL     1     -57.849 -40.215 -76.436  0.00  0.00    +0.000 C 
ENDBRANCH  24  26
ENDBRANCH  13  24
TORSDOF 5
