REMARK VINA RESULT:    -6.779     11.633     14.979
REMARK INTER + INTRA:          -9.758
REMARK INTER:                  -8.931
REMARK INTRA:                  -0.827
REMARK UNBOUND:                -0.997
REMARK  Name = 
REMARK  8 active torsions:
REMARK  status: ('A' for Active; 'I' for Inactive)
REMARK    1  A    between atoms: C_1  and  C_2
REMARK    2  A    between atoms: C_4  and  C_5
REMARK    3  A    between atoms: C_5  and  S_6
REMARK    4  A    between atoms: S_6  and  C_8
REMARK    5  A    between atoms: C_20  and  C_21
REMARK    6  A    between atoms: C_21  and  C_23
REMARK    7  A    between atoms: C_23  and  C_24
REMARK    8  A    between atoms: C_23  and  C_25
REMARK                            x       y       z     vdW  Elec       q    Type
REMARK                         _______ _______ _______ _____ _____    ______ ____
ROOT
ATOM      1  C   UNL     1     -55.350 -43.038 -62.117  0.00  0.00    +0.000 A 
ATOM      2  N   UNL     1     -55.214 -42.820 -60.748  0.00  0.00    +0.000 N 
ATOM      3  C   UNL     1     -56.321 -42.489 -59.937  0.00  0.00    +0.000 A 
ATOM      4  C   UNL     1     -56.294 -42.644 -58.537  0.00  0.00    +0.000 A 
ATOM      5 CL   UNL     1     -54.952 -43.404 -57.758  0.00  0.00    +0.000 Cl
ATOM      6  C   UNL     1     -57.359 -42.213 -57.746  0.00  0.00    +0.000 A 
ATOM      7  C   UNL     1     -58.472 -41.622 -58.349  0.00  0.00    +0.000 A 
ATOM      8  C   UNL     1     -58.523 -41.474 -59.741  0.00  0.00    +0.000 A 
ATOM      9 CL   UNL     1     -59.977 -40.792 -60.374  0.00  0.00    +0.000 Cl
ATOM     10  C   UNL     1     -57.443 -41.896 -60.531  0.00  0.00    +0.000 A 
ATOM     11  C   UNL     1     -57.353 -41.716 -62.002  0.00  0.00    +0.000 A 
ATOM     12  O   UNL     1     -57.950 -40.785 -62.529  0.00  0.00    +0.000 OA
ATOM     13  C   UNL     1     -56.452 -42.639 -62.813  0.00  0.00    +0.000 A 
ATOM     14  H   UNL     1     -54.507 -43.420 -60.305  0.00  0.00    +0.000 HD
ENDROOT
BRANCH   1  15
ATOM     15  S   UNL     1     -54.005 -44.118 -62.754  0.00  0.00    +0.000 S 
ATOM     16  O   UNL     1     -53.665 -44.993 -61.579  0.00  0.00    +0.000 OA
BRANCH  15  17
ATOM     17  C   UNL     1     -52.612 -42.940 -62.985  0.00  0.00    +0.000 C 
BRANCH  17  21
ATOM     18  C   UNL     1     -48.820 -45.623 -65.254  0.00  0.00    +0.000 C 
ATOM     19  C   UNL     1     -49.839 -44.695 -64.720  0.00  0.00    +0.000 A 
ATOM     20  C   UNL     1     -50.962 -44.826 -63.937  0.00  0.00    +0.000 A 
ATOM     21  C   UNL     1     -51.451 -43.500 -63.768  0.00  0.00    +0.000 A 
ATOM     22  N   UNL     1     -50.676 -42.636 -64.445  0.00  0.00    +0.000 NA
ATOM     23  O   UNL     1     -49.671 -43.383 -65.030  0.00  0.00    +0.000 OA
ENDBRANCH  17  21
ENDBRANCH  15  17
ENDBRANCH   1  15
BRANCH  13  24
ATOM     24  C   UNL     1     -56.953 -42.949 -64.209  0.00  0.00    +0.000 C 
ATOM     25  O   UNL     1     -57.868 -43.768 -64.367  0.00  0.00    +0.000 OA
BRANCH  24  26
ATOM     26  C   UNL     1     -56.274 -42.405 -65.452  0.00  0.00    +0.000 C 
ATOM     27  C   UNL     1     -57.277 -42.318 -66.587  0.00  0.00    +0.000 C 
ATOM     28  C   UNL     1     -55.555 -41.091 -65.171  0.00  0.00    +0.000 C 
ENDBRANCH  24  26
ENDBRANCH  13  24
TORSDOF 5
