REMARK VINA RESULT:    -6.807     10.365     14.482
REMARK INTER + INTRA:          -9.432
REMARK INTER:                  -8.709
REMARK INTRA:                  -0.723
REMARK UNBOUND:                -0.635
REMARK  Name = 
REMARK  6 active torsions:
REMARK  status: ('A' for Active; 'I' for Inactive)
REMARK    1  A    between atoms: C_1  and  C_2
REMARK    2  A    between atoms: C_4  and  C_5
REMARK    3  A    between atoms: C_5  and  S_6
REMARK    4  A    between atoms: S_6  and  C_8
REMARK    5  A    between atoms: C_20  and  C_21
REMARK    6  A    between atoms: C_21  and  C_23
REMARK                            x       y       z     vdW  Elec       q    Type
REMARK                         _______ _______ _______ _____ _____    ______ ____
ROOT
ATOM      1  C   UNL     1     -54.569 -41.692 -76.935  0.00  0.00    +0.000 A 
ATOM      2  N   UNL     1     -55.871 -41.847 -77.448  0.00  0.00    +0.000 N 
ATOM      3  C   UNL     1     -56.109 -41.790 -78.849  0.00  0.00    +0.000 A 
ATOM      4  C   UNL     1     -57.269 -42.311 -79.452  0.00  0.00    +0.000 A 
ATOM      5 BR   UNL     1     -58.537 -43.299 -78.446  0.00  0.00    +0.000 Br
ATOM      6  C   UNL     1     -57.514 -42.136 -80.822  0.00  0.00    +0.000 A 
ATOM      7  C   UNL     1     -56.579 -41.457 -81.612  0.00  0.00    +0.000 A 
ATOM      8  C   UNL     1     -55.421 -40.934 -81.036  0.00  0.00    +0.000 A 
ATOM      9 CL   UNL     1     -54.298 -40.178 -82.108  0.00  0.00    +0.000 Cl
ATOM     10  C   UNL     1     -55.204 -41.085 -79.658  0.00  0.00    +0.000 A 
ATOM     11  C   UNL     1     -54.054 -40.493 -78.947  0.00  0.00    +0.000 A 
ATOM     12  O   UNL     1     -53.533 -39.450 -79.320  0.00  0.00    +0.000 OA
ATOM     13  C   UNL     1     -53.581 -41.167 -77.693  0.00  0.00    +0.000 A 
ATOM     14  H   UNL     1     -56.391 -42.595 -76.969  0.00  0.00    +0.000 HD
ENDROOT
BRANCH   1  15
ATOM     15  S   UNL     1     -54.299 -42.647 -75.419  0.00  0.00    +0.000 S 
ATOM     16  O   UNL     1     -53.367 -43.751 -75.838  0.00  0.00    +0.000 OA
BRANCH  15  17
ATOM     17  C   UNL     1     -55.861 -43.420 -74.903  0.00  0.00    +0.000 C 
BRANCH  17  21
ATOM     18  C   UNL     1     -59.751 -41.467 -72.208  0.00  0.00    +0.000 C 
ATOM     19  C   UNL     1     -58.510 -41.981 -72.815  0.00  0.00    +0.000 A 
ATOM     20  C   UNL     1     -58.206 -42.646 -73.980  0.00  0.00    +0.000 A 
ATOM     21  C   UNL     1     -56.798 -42.748 -73.974  0.00  0.00    +0.000 A 
ATOM     22  N   UNL     1     -56.293 -42.236 -72.838  0.00  0.00    +0.000 NA
ATOM     23  O   UNL     1     -57.367 -41.757 -72.118  0.00  0.00    +0.000 OA
ENDBRANCH  17  21
ENDBRANCH  15  17
ENDBRANCH   1  15
BRANCH  13  24
ATOM     24  C   UNL     1     -52.098 -41.284 -77.599  0.00  0.00    +0.000 C 
ATOM     25  O   UNL     1     -51.464 -41.851 -78.473  0.00  0.00    +0.000 OA
BRANCH  24  26
ATOM     26  C   UNL     1     -51.406 -40.662 -76.454  0.00  0.00    +0.000 C 
ATOM     27  C   UNL     1     -49.900 -40.630 -76.426  0.00  0.00    +0.000 C 
ATOM     28  C   UNL     1     -50.641 -41.495 -75.454  0.00  0.00    +0.000 C 
ENDBRANCH  24  26
ENDBRANCH  13  24
TORSDOF 5
