REMARK VINA RESULT:    -6.380      4.383      6.818
REMARK INTER + INTRA:          -8.632
REMARK INTER:                  -7.968
REMARK INTRA:                  -0.664
REMARK UNBOUND:                -0.760
REMARK  Name = 
REMARK  6 active torsions:
REMARK  status: ('A' for Active; 'I' for Inactive)
REMARK    1  A    between atoms: C_1  and  C_2
REMARK    2  A    between atoms: C_2  and  C_4
REMARK    3  A    between atoms: C_5  and  S_6
REMARK    4  A    between atoms: S_6  and  C_8
REMARK    5  A    between atoms: C_8  and  C_9
REMARK    6  A    between atoms: C_11  and  C_12
REMARK                            x       y       z     vdW  Elec       q    Type
REMARK                         _______ _______ _______ _____ _____    ______ ____
ROOT
ATOM      1  C   UNL     1     -57.006 -42.014 -64.183  0.00  0.00    +0.000 A 
ATOM      2  C   UNL     1     -55.847 -42.231 -63.516  0.00  0.00    +0.000 A 
ATOM      3  N   UNL     1     -55.780 -42.377 -62.145  0.00  0.00    +0.000 N 
ATOM      4  C   UNL     1     -56.893 -42.230 -61.303  0.00  0.00    +0.000 A 
ATOM      5  C   UNL     1     -56.783 -42.457 -59.918  0.00  0.00    +0.000 A 
ATOM      6 BR   UNL     1     -55.118 -42.925 -59.133  0.00  0.00    +0.000 Br
ATOM      7  C   UNL     1     -57.896 -42.362 -59.084  0.00  0.00    +0.000 A 
ATOM      8  C   UNL     1     -59.135 -42.032 -59.626  0.00  0.00    +0.000 A 
ATOM      9  C   UNL     1     -59.273 -41.826 -61.006  0.00  0.00    +0.000 A 
ATOM     10 CL   UNL     1     -60.871 -41.416 -61.527  0.00  0.00    +0.000 Cl
ATOM     11  C   UNL     1     -58.158 -41.957 -61.853  0.00  0.00    +0.000 A 
ATOM     12  C   UNL     1     -58.232 -41.807 -63.331  0.00  0.00    +0.000 A 
ATOM     13  O   UNL     1     -59.283 -41.477 -63.865  0.00  0.00    +0.000 OA
ATOM     14  H   UNL     1     -54.870 -42.200 -61.720  0.00  0.00    +0.000 HD
ENDROOT
BRANCH   1  16
ATOM     15  C   UNL     1     -57.386 -43.211 -66.450  0.00  0.00    +0.000 C 
ATOM     16  C   UNL     1     -57.136 -41.935 -65.679  0.00  0.00    +0.000 C 
ATOM     17  O   UNL     1     -57.010 -40.870 -66.288  0.00  0.00    +0.000 OA
ENDBRANCH   1  16
BRANCH   2  18
ATOM     18  S   UNL     1     -54.242 -42.211 -64.383  0.00  0.00    +0.000 S 
ATOM     19  O   UNL     1     -53.830 -40.764 -64.322  0.00  0.00    +0.000 OA
BRANCH  18  20
ATOM     20  C   UNL     1     -53.227 -43.076 -63.131  0.00  0.00    +0.000 C 
BRANCH  20  21
ATOM     21  C   UNL     1     -51.915 -43.514 -63.688  0.00  0.00    +0.000 A 
ATOM     22  C   UNL     1     -51.405 -44.828 -63.842  0.00  0.00    +0.000 A 
ATOM     23  C   UNL     1     -50.204 -44.660 -64.487  0.00  0.00    +0.000 A 
ATOM     24  C   UNL     1     -49.157 -45.575 -64.976  0.00  0.00    +0.000 C 
ATOM     25  O   UNL     1     -49.999 -43.333 -64.702  0.00  0.00    +0.000 OA
ATOM     26  N   UNL     1     -51.071 -42.611 -64.208  0.00  0.00    +0.000 NA
ENDBRANCH  20  21
ENDBRANCH  18  20
ENDBRANCH   2  18
TORSDOF 4
