REMARK VINA RESULT:    -6.006     12.516     14.880
REMARK INTER + INTRA:          -8.648
REMARK INTER:                  -7.517
REMARK INTRA:                  -1.131
REMARK UNBOUND:                -0.887
REMARK  Name = 
REMARK  8 active torsions:
REMARK  status: ('A' for Active; 'I' for Inactive)
REMARK    1  A    between atoms: C_1  and  C_2
REMARK    2  A    between atoms: C_4  and  C_5
REMARK    3  A    between atoms: C_5  and  S_6
REMARK    4  A    between atoms: S_6  and  C_8
REMARK    5  A    between atoms: C_20  and  C_21
REMARK    6  A    between atoms: C_21  and  C_23
REMARK    7  A    between atoms: C_23  and  C_24
REMARK    8  A    between atoms: C_23  and  C_25
REMARK                            x       y       z     vdW  Elec       q    Type
REMARK                         _______ _______ _______ _____ _____    ______ ____
ROOT
ATOM      1  C   UNL     1     -55.833 -43.282 -78.191  0.00  0.00    +0.000 A 
ATOM      2  N   UNL     1     -55.160 -42.096 -77.910  0.00  0.00    +0.000 N 
ATOM      3  C   UNL     1     -53.960 -42.085 -77.173  0.00  0.00    +0.000 A 
ATOM      4  C   UNL     1     -53.059 -41.005 -77.226  0.00  0.00    +0.000 A 
ATOM      5 BR   UNL     1     -53.333 -39.564 -78.428  0.00  0.00    +0.000 Br
ATOM      6  C   UNL     1     -51.914 -40.985 -76.424  0.00  0.00    +0.000 A 
ATOM      7  C   UNL     1     -51.650 -42.045 -75.562  0.00  0.00    +0.000 A 
ATOM      8  C   UNL     1     -52.535 -43.137 -75.499  0.00  0.00    +0.000 A 
ATOM      9 CL   UNL     1     -52.066 -44.424 -74.447  0.00  0.00    +0.000 Cl
ATOM     10  C   UNL     1     -53.694 -43.155 -76.303  0.00  0.00    +0.000 A 
ATOM     11  C   UNL     1     -54.705 -44.243 -76.286  0.00  0.00    +0.000 A 
ATOM     12  O   UNL     1     -54.821 -44.960 -75.296  0.00  0.00    +0.000 OA
ATOM     13  C   UNL     1     -55.597 -44.428 -77.510  0.00  0.00    +0.000 A 
ATOM     14  H   UNL     1     -55.244 -41.384 -78.648  0.00  0.00    +0.000 HD
ENDROOT
BRANCH   1  15
ATOM     15  S   UNL     1     -56.869 -43.126 -79.695  0.00  0.00    +0.000 S 
ATOM     16  O   UNL     1     -56.241 -44.090 -80.665  0.00  0.00    +0.000 OA
BRANCH  15  17
ATOM     17  C   UNL     1     -56.527 -41.427 -80.265  0.00  0.00    +0.000 C 
BRANCH  17  21
ATOM     18  C   UNL     1     -52.730 -41.074 -83.767  0.00  0.00    +0.000 C 
ATOM     19  C   UNL     1     -53.944 -41.185 -82.928  0.00  0.00    +0.000 A 
ATOM     20  C   UNL     1     -54.187 -41.332 -81.582  0.00  0.00    +0.000 A 
ATOM     21  C   UNL     1     -55.607 -41.338 -81.461  0.00  0.00    +0.000 A 
ATOM     22  N   UNL     1     -56.168 -41.222 -82.677  0.00  0.00    +0.000 NA
ATOM     23  O   UNL     1     -55.131 -41.124 -83.584  0.00  0.00    +0.000 OA
ENDBRANCH  17  21
ENDBRANCH  15  17
ENDBRANCH   1  15
BRANCH  13  24
ATOM     24  C   UNL     1     -56.053 -45.838 -77.811  0.00  0.00    +0.000 C 
ATOM     25  O   UNL     1     -57.248 -46.126 -77.761  0.00  0.00    +0.000 OA
BRANCH  24  26
ATOM     26  C   UNL     1     -55.030 -46.933 -78.116  0.00  0.00    +0.000 C 
ATOM     27  C   UNL     1     -55.170 -48.119 -77.165  0.00  0.00    +0.000 C 
ATOM     28  C   UNL     1     -55.112 -47.405 -79.570  0.00  0.00    +0.000 C 
ENDBRANCH  24  26
ENDBRANCH  13  24
TORSDOF 5
