REMARK VINA RESULT:    -6.584     11.671     13.405
REMARK INTER + INTRA:          -9.384
REMARK INTER:                  -8.429
REMARK INTRA:                  -0.955
REMARK UNBOUND:                -0.876
REMARK  Name = 
REMARK  6 active torsions:
REMARK  status: ('A' for Active; 'I' for Inactive)
REMARK    1  A    between atoms: C_1  and  C_2
REMARK    2  A    between atoms: C_4  and  C_5
REMARK    3  A    between atoms: C_5  and  S_6
REMARK    4  A    between atoms: S_6  and  C_8
REMARK    5  A    between atoms: C_20  and  C_21
REMARK    6  A    between atoms: C_21  and  C_23
REMARK                            x       y       z     vdW  Elec       q    Type
REMARK                         _______ _______ _______ _____ _____    ______ ____
ROOT
ATOM      1  C   UNL     1     -55.483 -41.329 -63.329  0.00  0.00    +0.000 A 
ATOM      2  N   UNL     1     -54.133 -41.050 -63.618  0.00  0.00    +0.000 N 
ATOM      3  C   UNL     1     -53.192 -42.106 -63.765  0.00  0.00    +0.000 A 
ATOM      4  C   UNL     1     -51.956 -41.948 -64.420  0.00  0.00    +0.000 A 
ATOM      5 BR   UNL     1     -51.528 -40.338 -65.327  0.00  0.00    +0.000 Br
ATOM      6  C   UNL     1     -51.011 -42.984 -64.446  0.00  0.00    +0.000 A 
ATOM      7  C   UNL     1     -51.308 -44.207 -63.834  0.00  0.00    +0.000 A 
ATOM      8  C   UNL     1     -52.527 -44.388 -63.180  0.00  0.00    +0.000 A 
ATOM      9 CL   UNL     1     -52.825 -45.955 -62.520  0.00  0.00    +0.000 Cl
ATOM     10  C   UNL     1     -53.449 -43.332 -63.130  0.00  0.00    +0.000 A 
ATOM     11  C   UNL     1     -54.724 -43.400 -62.390  0.00  0.00    +0.000 A 
ATOM     12  O   UNL     1     -54.848 -44.084 -61.382  0.00  0.00    +0.000 OA
ATOM     13  C   UNL     1     -55.859 -42.540 -62.862  0.00  0.00    +0.000 A 
ATOM     14  H   UNL     1     -54.031 -40.304 -64.320  0.00  0.00    +0.000 HD
ENDROOT
BRANCH   1  15
ATOM     15  S   UNL     1     -56.615 -40.114 -64.054  0.00  0.00    +0.000 S 
ATOM     16  O   UNL     1     -55.708 -39.108 -64.708  0.00  0.00    +0.000 OA
BRANCH  15  17
ATOM     17  C   UNL     1     -57.513 -39.255 -62.729  0.00  0.00    +0.000 C 
BRANCH  17  21
ATOM     18  C   UNL     1     -61.765 -41.570 -61.061  0.00  0.00    +0.000 C 
ATOM     19  C   UNL     1     -60.461 -40.945 -61.348  0.00  0.00    +0.000 A 
ATOM     20  C   UNL     1     -59.877 -40.394 -62.465  0.00  0.00    +0.000 A 
ATOM     21  C   UNL     1     -58.639 -39.891 -62.007  0.00  0.00    +0.000 A 
ATOM     22  N   UNL     1     -58.462 -40.187 -60.707  0.00  0.00    +0.000 NA
ATOM     23  O   UNL     1     -59.604 -40.844 -60.300  0.00  0.00    +0.000 OA
ENDBRANCH  17  21
ENDBRANCH  15  17
ENDBRANCH   1  15
BRANCH  13  24
ATOM     24  C   UNL     1     -57.173 -43.243 -62.890  0.00  0.00    +0.000 C 
ATOM     25  O   UNL     1     -57.871 -43.291 -61.892  0.00  0.00    +0.000 OA
BRANCH  24  26
ATOM     26  C   UNL     1     -57.635 -43.837 -64.159  0.00  0.00    +0.000 C 
ATOM     27  C   UNL     1     -57.052 -43.350 -65.461  0.00  0.00    +0.000 C 
ATOM     28  C   UNL     1     -58.482 -43.048 -65.129  0.00  0.00    +0.000 C 
ENDBRANCH  24  26
ENDBRANCH  13  24
TORSDOF 5
