REMARK VINA RESULT:    -6.533      3.234      5.513
REMARK INTER + INTRA:          -9.319
REMARK INTER:                  -8.455
REMARK INTRA:                  -0.864
REMARK UNBOUND:                -0.876
REMARK  Name = 
REMARK  6 active torsions:
REMARK  status: ('A' for Active; 'I' for Inactive)
REMARK    1  A    between atoms: C_1  and  C_2
REMARK    2  A    between atoms: C_4  and  C_5
REMARK    3  A    between atoms: C_5  and  S_6
REMARK    4  A    between atoms: S_6  and  C_8
REMARK    5  A    between atoms: C_20  and  C_21
REMARK    6  A    between atoms: C_21  and  C_23
REMARK                            x       y       z     vdW  Elec       q    Type
REMARK                         _______ _______ _______ _____ _____    ______ ____
ROOT
ATOM      1  C   UNL     1     -57.671 -43.114 -77.167  0.00  0.00    +0.000 A 
ATOM      2  N   UNL     1     -57.302 -44.416 -77.556  0.00  0.00    +0.000 N 
ATOM      3  C   UNL     1     -56.222 -45.084 -76.916  0.00  0.00    +0.000 A 
ATOM      4  C   UNL     1     -56.045 -46.480 -76.965  0.00  0.00    +0.000 A 
ATOM      5 BR   UNL     1     -57.355 -47.606 -77.749  0.00  0.00    +0.000 Br
ATOM      6  C   UNL     1     -54.907 -47.086 -76.414  0.00  0.00    +0.000 A 
ATOM      7  C   UNL     1     -53.941 -46.297 -75.780  0.00  0.00    +0.000 A 
ATOM      8  C   UNL     1     -54.095 -44.912 -75.718  0.00  0.00    +0.000 A 
ATOM      9 CL   UNL     1     -52.884 -44.037 -74.852  0.00  0.00    +0.000 Cl
ATOM     10  C   UNL     1     -55.221 -44.314 -76.304  0.00  0.00    +0.000 A 
ATOM     11  C   UNL     1     -55.427 -42.854 -76.363  0.00  0.00    +0.000 A 
ATOM     12  O   UNL     1     -54.486 -42.072 -76.420  0.00  0.00    +0.000 OA
ATOM     13  C   UNL     1     -56.836 -42.345 -76.434  0.00  0.00    +0.000 A 
ATOM     14  H   UNL     1     -58.120 -45.018 -77.725  0.00  0.00    +0.000 HD
ENDROOT
BRANCH   1  15
ATOM     15  S   UNL     1     -59.447 -42.808 -77.352  0.00  0.00    +0.000 S 
ATOM     16  O   UNL     1     -60.054 -44.183 -77.412  0.00  0.00    +0.000 OA
BRANCH  15  17
ATOM     17  C   UNL     1     -59.760 -42.006 -78.952  0.00  0.00    +0.000 C 
BRANCH  17  21
ATOM     18  C   UNL     1     -62.398 -37.678 -79.683  0.00  0.00    +0.000 C 
ATOM     19  C   UNL     1     -61.523 -38.812 -79.333  0.00  0.00    +0.000 A 
ATOM     20  C   UNL     1     -61.492 -40.147 -79.661  0.00  0.00    +0.000 A 
ATOM     21  C   UNL     1     -60.319 -40.637 -79.046  0.00  0.00    +0.000 A 
ATOM     22  N   UNL     1     -59.720 -39.667 -78.332  0.00  0.00    +0.000 NA
ATOM     23  O   UNL     1     -60.476 -38.528 -78.517  0.00  0.00    +0.000 OA
ENDBRANCH  17  21
ENDBRANCH  15  17
ENDBRANCH   1  15
BRANCH  13  24
ATOM     24  C   UNL     1     -57.097 -41.179 -75.542  0.00  0.00    +0.000 C 
ATOM     25  O   UNL     1     -57.361 -40.086 -76.013  0.00  0.00    +0.000 OA
BRANCH  24  26
ATOM     26  C   UNL     1     -57.076 -41.382 -74.081  0.00  0.00    +0.000 C 
ATOM     27  C   UNL     1     -57.744 -42.598 -73.493  0.00  0.00    +0.000 C 
ATOM     28  C   UNL     1     -58.332 -41.240 -73.254  0.00  0.00    +0.000 C 
ENDBRANCH  24  26
ENDBRANCH  13  24
TORSDOF 5
