=
 OpenBabel09172513523D

 26 28  0  0  0  0  0  0  0  0999 V2000
  -55.5090  -42.8830  -62.7650 C   0  0  0  0  0  0  0  0  0  0  0  0
  -55.2750  -41.6970  -63.3750 C   0  0  0  0  0  0  0  0  0  0  0  0
  -54.0790  -41.3850  -63.9950 N   0  0  0  0  0  0  0  0  0  0  0  0
  -52.9500  -42.2180  -63.9470 C   0  0  0  0  0  0  0  0  0  0  0  0
  -51.7540  -41.8510  -64.5880 C   0  0  0  0  0  0  0  0  0  0  0  0
  -51.5970  -40.1780  -65.4770 Br  0  0  0  0  0  0  0  0  0  0  0  0
  -50.6500  -42.6990  -64.5920 C   0  0  0  0  0  3  0  0  0  0  0  0
  -50.7310  -43.9340  -63.9560 C   0  0  0  0  0  3  0  0  0  0  0  0
  -51.9180  -44.3350  -63.3310 C   0  0  0  0  0  0  0  0  0  0  0  0
  -51.8610  -45.8910  -62.5780 Cl  0  0  0  0  0  0  0  0  0  0  0  0
  -53.0430  -43.4850  -63.3420 C   0  0  0  0  0  0  0  0  0  0  0  0
  -54.3460  -43.8420  -62.7150 C   0  0  0  0  0  0  0  0  0  0  0  0
  -54.4650  -44.9060  -62.1200 O   0  0  0  0  0  0  0  0  0  0  0  0
  -53.8860  -40.3860  -64.0910 H   0  0  0  0  0  0  0  0  0  0  0  0
  -57.8060  -44.0990  -62.9060 C   0  0  0  0  0  1  0  0  0  0  0  0
  -56.8120  -43.2710  -62.1220 C   0  0  0  0  0  0  0  0  0  0  0  0
  -57.1070  -42.9100  -60.9830 O   0  0  0  0  0  0  0  0  0  0  0  0
  -56.4680  -40.3200  -63.2830 S   0  0  1  0  0  0  0  0  0  0  0  0
  -55.6440  -39.1920  -62.7200 O   0  0  0  0  0  0  0  0  0  0  0  0
  -56.6470  -39.9700  -65.0760 C   0  0  0  0  0  2  0  0  0  0  0  0
  -57.1560  -41.1570  -65.8640 C   0  0  0  0  0  0  0  0  0  0  0  0
  -56.3580  -41.7770  -66.8410 C   0  0  0  0  0  3  0  0  0  0  0  0
  -56.8290  -42.8830  -67.5550 C   0  0  0  0  0  3  0  0  0  0  0  0
  -58.1000  -43.3910  -67.2980 C   0  0  0  0  0  3  0  0  0  0  0  0
  -58.8960  -42.7970  -66.3210 C   0  0  0  0  0  3  0  0  0  0  0  0
  -58.4290  -41.6890  -65.6080 C   0  0  0  0  0  3  0  0  0  0  0  0
  1 12  1  0  0  0  0
  1 16  1  0  0  0  0
  2 18  1  0  0  0  0
  2  1  2  0  0  0  0
  3  4  1  0  0  0  0
  3  2  1  0  0  0  0
  4 11  1  0  0  0  0
  5  4  2  0  0  0  0
  6  5  1  0  0  0  0
  7  5  1  0  0  0  0
  7  8  2  0  0  0  0
  8  9  1  0  0  0  0
  9 10  1  0  0  0  0
 11  9  2  0  0  0  0
 11 12  1  0  0  0  0
 12 13  2  0  0  0  0
 14  3  1  0  0  0  0
 15 16  1  0  0  0  0
 16 17  2  0  0  0  0
 18 19  2  1  0  0  0
 20 18  1  0  0  0  0
 21 26  1  0  0  0  0
 21 20  1  0  0  0  0
 22 21  2  0  0  0  0
 23 24  2  0  0  0  0
 23 22  1  0  0  0  0
 24 25  1  0  0  0  0
 25 26  2  0  0  0  0
M  END
>  <MODEL>
1

>  <REMARK>
 VINA RESULT:    -7.758      0.000      0.000
 INTER + INTRA:         -10.808
 INTER:                  -9.573
 INTRA:                  -1.235
 UNBOUND:                -1.235
  Name = 
  5 active torsions:
  status: ('A' for Active; 'I' for Inactive)
    1  A    between atoms: C_1  and  C_2
    2  A    between atoms: C_2  and  C_4
    3  A    between atoms: C_5  and  S_6
    4  A    between atoms: S_6  and  C_8
    5  A    between atoms: C_8  and  C_9
                            x       y       z     vdW  Elec       q    Type
                         _______ _______ _______ _____ _____    ______ ____

>  <TORSDO>
F 4

$$$$
