REMARK VINA RESULT:    -5.894     14.210     16.841
REMARK INTER + INTRA:          -7.797
REMARK INTER:                  -7.117
REMARK INTRA:                  -0.680
REMARK UNBOUND:                -0.524
REMARK  Name = 
REMARK  6 active torsions:
REMARK  status: ('A' for Active; 'I' for Inactive)
REMARK    1  A    between atoms: C_1  and  C_2
REMARK    2  A    between atoms: C_2  and  C_4
REMARK    3  A    between atoms: C_5  and  S_6
REMARK    4  A    between atoms: S_6  and  C_8
REMARK    5  A    between atoms: C_8  and  C_9
REMARK    6  A    between atoms: C_11  and  C_12
REMARK                            x       y       z     vdW  Elec       q    Type
REMARK                         _______ _______ _______ _____ _____    ______ ____
ROOT
ATOM      1  C   UNL     1     -65.832 -49.427 -53.044  0.00  0.00    +0.000 A 
ATOM      2  C   UNL     1     -66.758 -48.996 -53.929  0.00  0.00    +0.000 A 
ATOM      3  N   UNL     1     -67.661 -49.833 -54.560  0.00  0.00    +0.000 N 
ATOM      4  C   UNL     1     -67.615 -51.229 -54.437  0.00  0.00    +0.000 A 
ATOM      5  C   UNL     1     -68.533 -52.042 -55.129  0.00  0.00    +0.000 A 
ATOM      6 BR   UNL     1     -69.811 -51.285 -56.314  0.00  0.00    +0.000 Br
ATOM      7  C   UNL     1     -68.531 -53.424 -54.969  0.00  0.00    +0.000 A 
ATOM      8  C   UNL     1     -67.612 -54.014 -54.103  0.00  0.00    +0.000 A 
ATOM      9  C   UNL     1     -66.704 -53.226 -53.388  0.00  0.00    +0.000 A 
ATOM     10 CL   UNL     1     -65.629 -54.102 -52.354  0.00  0.00    +0.000 Cl
ATOM     11  C   UNL     1     -66.711 -51.825 -53.540  0.00  0.00    +0.000 A 
ATOM     12  C   UNL     1     -65.772 -50.916 -52.823  0.00  0.00    +0.000 A 
ATOM     13  O   UNL     1     -64.916 -51.385 -52.083  0.00  0.00    +0.000 OA
ATOM     14  H   UNL     1     -68.045 -49.480 -55.437  0.00  0.00    +0.000 HD
ENDROOT
BRANCH   1  16
ATOM     15  C   UNL     1     -65.338 -47.712 -51.145  0.00  0.00    +0.000 C 
ATOM     16  C   UNL     1     -64.854 -48.531 -52.322  0.00  0.00    +0.000 C 
ATOM     17  O   UNL     1     -63.679 -48.439 -52.675  0.00  0.00    +0.000 OA
ENDBRANCH   1  16
BRANCH   2  18
ATOM     18  S   UNL     1     -66.783 -47.267 -54.507  0.00  0.00    +0.000 S 
ATOM     19  O   UNL     1     -65.418 -47.078 -55.111  0.00  0.00    +0.000 OA
BRANCH  18  20
ATOM     20  C   UNL     1     -67.937 -47.438 -55.916  0.00  0.00    +0.000 C 
BRANCH  20  21
ATOM     21  C   UNL     1     -67.250 -47.335 -57.239  0.00  0.00    +0.000 A 
ATOM     22  C   UNL     1     -66.655 -48.341 -58.043  0.00  0.00    +0.000 A 
ATOM     23  C   UNL     1     -66.202 -47.676 -59.156  0.00  0.00    +0.000 A 
ATOM     24  C   UNL     1     -65.464 -48.069 -60.370  0.00  0.00    +0.000 C 
ATOM     25  O   UNL     1     -66.533 -46.362 -59.051  0.00  0.00    +0.000 OA
ATOM     26  N   UNL     1     -67.194 -46.145 -57.856  0.00  0.00    +0.000 NA
ENDBRANCH  20  21
ENDBRANCH  18  20
ENDBRANCH   2  18
TORSDOF 4
