REMARK VINA RESULT:    -5.134      6.380      8.465
REMARK INTER + INTRA:          -7.435
REMARK INTER:                  -6.556
REMARK INTRA:                  -0.879
REMARK UNBOUND:                -0.800
REMARK  Name = 
REMARK  8 active torsions:
REMARK  status: ('A' for Active; 'I' for Inactive)
REMARK    1  A    between atoms: C_1  and  C_2
REMARK    2  A    between atoms: C_4  and  C_5
REMARK    3  A    between atoms: C_5  and  S_6
REMARK    4  A    between atoms: S_6  and  C_8
REMARK    5  A    between atoms: C_20  and  C_21
REMARK    6  A    between atoms: C_21  and  C_23
REMARK    7  A    between atoms: C_23  and  C_24
REMARK    8  A    between atoms: C_23  and  C_25
REMARK                            x       y       z     vdW  Elec       q    Type
REMARK                         _______ _______ _______ _____ _____    ______ ____
ROOT
ATOM      1  C   UNL     1     -57.294 -36.135 -62.446  0.00  0.00    +0.000 A 
ATOM      2  N   UNL     1     -57.792 -34.851 -62.648  0.00  0.00    +0.000 N 
ATOM      3  C   UNL     1     -59.063 -34.470 -62.178  0.00  0.00    +0.000 A 
ATOM      4  C   UNL     1     -59.419 -33.120 -61.992  0.00  0.00    +0.000 A 
ATOM      5 BR   UNL     1     -58.142 -31.735 -62.211  0.00  0.00    +0.000 Br
ATOM      6  C   UNL     1     -60.713 -32.766 -61.599  0.00  0.00    +0.000 A 
ATOM      7  C   UNL     1     -61.668 -33.754 -61.381  0.00  0.00    +0.000 A 
ATOM      8  C   UNL     1     -61.331 -35.109 -61.554  0.00  0.00    +0.000 A 
ATOM      9 CL   UNL     1     -62.577 -36.246 -61.186  0.00  0.00    +0.000 Cl
ATOM     10  C   UNL     1     -60.028 -35.467 -61.958  0.00  0.00    +0.000 A 
ATOM     11  C   UNL     1     -59.582 -36.863 -62.199  0.00  0.00    +0.000 A 
ATOM     12  O   UNL     1     -60.404 -37.731 -62.478  0.00  0.00    +0.000 OA
ATOM     13  C   UNL     1     -58.092 -37.178 -62.114  0.00  0.00    +0.000 A 
ATOM     14  H   UNL     1     -57.070 -34.118 -62.643  0.00  0.00    +0.000 HD
ENDROOT
BRANCH   1  15
ATOM     15  S   UNL     1     -55.462 -36.157 -62.471  0.00  0.00    +0.000 S 
ATOM     16  O   UNL     1     -55.082 -34.717 -62.255  0.00  0.00    +0.000 OA
BRANCH  15  17
ATOM     17  C   UNL     1     -55.072 -36.604 -64.197  0.00  0.00    +0.000 C 
BRANCH  17  21
ATOM     18  C   UNL     1     -53.274 -41.458 -64.276  0.00  0.00    +0.000 C 
ATOM     19  C   UNL     1     -53.620 -40.022 -64.365  0.00  0.00    +0.000 A 
ATOM     20  C   UNL     1     -54.706 -39.258 -64.004  0.00  0.00    +0.000 A 
ATOM     21  C   UNL     1     -54.353 -37.923 -64.357  0.00  0.00    +0.000 A 
ATOM     22  N   UNL     1     -53.131 -37.908 -64.916  0.00  0.00    +0.000 NA
ATOM     23  O   UNL     1     -52.678 -39.214 -64.915  0.00  0.00    +0.000 OA
ENDBRANCH  17  21
ENDBRANCH  15  17
ENDBRANCH   1  15
BRANCH  13  24
ATOM     24  C   UNL     1     -57.716 -38.565 -61.643  0.00  0.00    +0.000 C 
ATOM     25  O   UNL     1     -57.829 -39.528 -62.402  0.00  0.00    +0.000 OA
BRANCH  24  26
ATOM     26  C   UNL     1     -57.257 -38.795 -60.203  0.00  0.00    +0.000 C 
ATOM     27  C   UNL     1     -57.855 -37.765 -59.247  0.00  0.00    +0.000 C 
ATOM     28  C   UNL     1     -57.574 -40.213 -59.721  0.00  0.00    +0.000 C 
ENDBRANCH  24  26
ENDBRANCH  13  24
TORSDOF 5
