REMARK VINA RESULT:    -4.282     13.119     14.635
REMARK INTER + INTRA:          -6.286
REMARK INTER:                  -5.674
REMARK INTRA:                  -0.613
REMARK UNBOUND:                -1.003
REMARK  Name = 
REMARK  6 active torsions:
REMARK  status: ('A' for Active; 'I' for Inactive)
REMARK    1  A    between atoms: C_1  and  C_2
REMARK    2  A    between atoms: C_2  and  C_4
REMARK    3  A    between atoms: C_5  and  S_6
REMARK    4  A    between atoms: S_6  and  C_8
REMARK    5  A    between atoms: C_8  and  C_9
REMARK    6  A    between atoms: C_11  and  C_12
REMARK                            x       y       z     vdW  Elec       q    Type
REMARK                         _______ _______ _______ _____ _____    ______ ____
ROOT
ATOM      1  C   UNL     1     -66.581 -41.794 -71.167  0.00  0.00    +0.000 A 
ATOM      2  C   UNL     1     -66.860 -40.918 -70.175  0.00  0.00    +0.000 A 
ATOM      3  N   UNL     1     -65.924 -40.504 -69.248  0.00  0.00    +0.000 N 
ATOM      4  C   UNL     1     -64.644 -41.081 -69.146  0.00  0.00    +0.000 A 
ATOM      5  C   UNL     1     -63.749 -40.685 -68.137  0.00  0.00    +0.000 A 
ATOM      6 BR   UNL     1     -64.263 -39.415 -66.819  0.00  0.00    +0.000 Br
ATOM      7  C   UNL     1     -62.461 -41.216 -68.066  0.00  0.00    +0.000 A 
ATOM      8  C   UNL     1     -62.051 -42.145 -69.013  0.00  0.00    +0.000 A 
ATOM      9  C   UNL     1     -62.915 -42.541 -70.045  0.00  0.00    +0.000 A 
ATOM     10 CL   UNL     1     -62.260 -43.712 -71.136  0.00  0.00    +0.000 Cl
ATOM     11  C   UNL     1     -64.214 -41.998 -70.120  0.00  0.00    +0.000 A 
ATOM     12  C   UNL     1     -65.188 -42.373 -71.175  0.00  0.00    +0.000 A 
ATOM     13  O   UNL     1     -64.877 -43.183 -72.032  0.00  0.00    +0.000 OA
ATOM     14  H   UNL     1     -66.304 -40.141 -68.372  0.00  0.00    +0.000 HD
ENDROOT
BRANCH   1  16
ATOM     15  C   UNL     1     -67.738 -41.447 -73.483  0.00  0.00    +0.000 C 
ATOM     16  C   UNL     1     -67.574 -42.253 -72.215  0.00  0.00    +0.000 C 
ATOM     17  O   UNL     1     -68.258 -43.265 -72.057  0.00  0.00    +0.000 OA
ENDBRANCH   1  16
BRANCH   2  18
ATOM     18  S   UNL     1     -68.562 -40.340 -69.867  0.00  0.00    +0.000 S 
ATOM     19  O   UNL     1     -68.546 -39.965 -68.409  0.00  0.00    +0.000 OA
BRANCH  18  20
ATOM     20  C   UNL     1     -68.525 -38.764 -70.793  0.00  0.00    +0.000 C 
BRANCH  20  21
ATOM     21  C   UNL     1     -69.835 -38.044 -70.758  0.00  0.00    +0.000 A 
ATOM     22  C   UNL     1     -70.837 -37.912 -71.755  0.00  0.00    +0.000 A 
ATOM     23  C   UNL     1     -71.823 -37.159 -71.163  0.00  0.00    +0.000 A 
ATOM     24  C   UNL     1     -73.113 -36.603 -71.612  0.00  0.00    +0.000 C 
ATOM     25  O   UNL     1     -71.461 -36.890 -69.881  0.00  0.00    +0.000 OA
ATOM     26  N   UNL     1     -70.222 -37.447 -69.620  0.00  0.00    +0.000 NA
ENDBRANCH  20  21
ENDBRANCH  18  20
ENDBRANCH   2  18
TORSDOF 4
