REMARK VINA RESULT:    -4.782      6.048      8.194
REMARK INTER + INTRA:          -7.418
REMARK INTER:                  -6.585
REMARK INTRA:                  -0.833
REMARK UNBOUND:                -1.238
REMARK  Name = 
REMARK  8 active torsions:
REMARK  status: ('A' for Active; 'I' for Inactive)
REMARK    1  A    between atoms: C_1  and  C_2
REMARK    2  A    between atoms: C_4  and  C_5
REMARK    3  A    between atoms: C_5  and  S_6
REMARK    4  A    between atoms: S_6  and  C_8
REMARK    5  A    between atoms: C_20  and  C_21
REMARK    6  A    between atoms: C_21  and  C_23
REMARK    7  A    between atoms: C_23  and  C_24
REMARK    8  A    between atoms: C_23  and  C_25
REMARK                            x       y       z     vdW  Elec       q    Type
REMARK                         _______ _______ _______ _____ _____    ______ ____
ROOT
ATOM      1  C   UNL     1     -59.669 -42.838 -58.927  0.00  0.00    +0.000 A 
ATOM      2  N   UNL     1     -58.311 -42.618 -58.718  0.00  0.00    +0.000 N 
ATOM      3  C   UNL     1     -57.650 -43.113 -57.576  0.00  0.00    +0.000 A 
ATOM      4  C   UNL     1     -56.253 -43.276 -57.532  0.00  0.00    +0.000 A 
ATOM      5 BR   UNL     1     -55.188 -42.990 -59.075  0.00  0.00    +0.000 Br
ATOM      6  C   UNL     1     -55.614 -43.694 -56.361  0.00  0.00    +0.000 A 
ATOM      7  C   UNL     1     -56.364 -43.961 -55.219  0.00  0.00    +0.000 A 
ATOM      8  C   UNL     1     -57.763 -43.811 -55.244  0.00  0.00    +0.000 A 
ATOM      9 CL   UNL     1     -58.590 -44.239 -53.790  0.00  0.00    +0.000 Cl
ATOM     10  C   UNL     1     -58.406 -43.382 -56.424  0.00  0.00    +0.000 A 
ATOM     11  C   UNL     1     -59.870 -43.162 -56.543  0.00  0.00    +0.000 A 
ATOM     12  O   UNL     1     -60.540 -42.926 -55.542  0.00  0.00    +0.000 OA
ATOM     13  C   UNL     1     -60.505 -43.216 -57.930  0.00  0.00    +0.000 A 
ATOM     14  H   UNL     1     -57.755 -42.586 -59.583  0.00  0.00    +0.000 HD
ENDROOT
BRANCH   1  15
ATOM     15  S   UNL     1     -60.095 -42.765 -60.708  0.00  0.00    +0.000 S 
ATOM     16  O   UNL     1     -60.230 -44.210 -61.105  0.00  0.00    +0.000 OA
BRANCH  15  17
ATOM     17  C   UNL     1     -58.581 -42.094 -61.474  0.00  0.00    +0.000 C 
BRANCH  17  21
ATOM     18  C   UNL     1     -58.171 -43.408 -66.464  0.00  0.00    +0.000 C 
ATOM     19  C   UNL     1     -58.137 -43.171 -65.005  0.00  0.00    +0.000 A 
ATOM     20  C   UNL     1     -58.738 -42.276 -64.149  0.00  0.00    +0.000 A 
ATOM     21  C   UNL     1     -58.278 -42.639 -62.850  0.00  0.00    +0.000 A 
ATOM     22  N   UNL     1     -57.434 -43.681 -62.941  0.00  0.00    +0.000 NA
ATOM     23  O   UNL     1     -57.353 -44.010 -64.281  0.00  0.00    +0.000 OA
ENDBRANCH  17  21
ENDBRANCH  15  17
ENDBRANCH   1  15
BRANCH  13  24
ATOM     24  C   UNL     1     -61.932 -43.710 -58.005  0.00  0.00    +0.000 C 
ATOM     25  O   UNL     1     -62.860 -42.972 -57.677  0.00  0.00    +0.000 OA
BRANCH  24  26
ATOM     26  C   UNL     1     -62.231 -45.149 -58.427  0.00  0.00    +0.000 C 
ATOM     27  C   UNL     1     -60.996 -46.040 -58.313  0.00  0.00    +0.000 C 
ATOM     28  C   UNL     1     -63.393 -45.749 -57.631  0.00  0.00    +0.000 C 
ENDBRANCH  24  26
ENDBRANCH  13  24
TORSDOF 5
