REMARK VINA RESULT:    -6.901     12.468     13.922
REMARK INTER + INTRA:          -9.039
REMARK INTER:                  -8.392
REMARK INTRA:                  -0.646
REMARK UNBOUND:                -0.524
REMARK  Name = 
REMARK  6 active torsions:
REMARK  status: ('A' for Active; 'I' for Inactive)
REMARK    1  A    between atoms: C_1  and  C_2
REMARK    2  A    between atoms: C_2  and  C_4
REMARK    3  A    between atoms: C_5  and  S_6
REMARK    4  A    between atoms: S_6  and  C_8
REMARK    5  A    between atoms: C_8  and  C_9
REMARK    6  A    between atoms: C_11  and  C_12
REMARK                            x       y       z     vdW  Elec       q    Type
REMARK                         _______ _______ _______ _____ _____    ______ ____
ROOT
ATOM      1  C   UNL     1     -56.230 -42.695 -76.878  0.00  0.00    +0.000 A 
ATOM      2  C   UNL     1     -55.260 -43.482 -76.363  0.00  0.00    +0.000 A 
ATOM      3  N   UNL     1     -55.271 -44.863 -76.447  0.00  0.00    +0.000 N 
ATOM      4  C   UNL     1     -56.357 -45.584 -76.963  0.00  0.00    +0.000 A 
ATOM      5  C   UNL     1     -56.337 -46.991 -76.994  0.00  0.00    +0.000 A 
ATOM      6 BR   UNL     1     -54.877 -47.965 -76.264  0.00  0.00    +0.000 Br
ATOM      7  C   UNL     1     -57.385 -47.713 -77.555  0.00  0.00    +0.000 A 
ATOM      8  C   UNL     1     -58.470 -47.032 -78.105  0.00  0.00    +0.000 A 
ATOM      9  C   UNL     1     -58.503 -45.633 -78.106  0.00  0.00    +0.000 A 
ATOM     10 CL   UNL     1     -59.914 -44.935 -78.825  0.00  0.00    +0.000 Cl
ATOM     11  C   UNL     1     -57.437 -44.900 -77.548  0.00  0.00    +0.000 A 
ATOM     12  C   UNL     1     -57.400 -43.411 -77.501  0.00  0.00    +0.000 A 
ATOM     13  O   UNL     1     -58.347 -42.764 -77.932  0.00  0.00    +0.000 OA
ATOM     14  H   UNL     1     -54.715 -45.348 -75.742  0.00  0.00    +0.000 HD
ENDROOT
BRANCH   1  16
ATOM     15  C   UNL     1     -55.545 -40.411 -77.929  0.00  0.00    +0.000 C 
ATOM     16  C   UNL     1     -56.228 -41.186 -76.823  0.00  0.00    +0.000 C 
ATOM     17  O   UNL     1     -56.754 -40.572 -75.896  0.00  0.00    +0.000 OA
ENDBRANCH   1  16
BRANCH   2  18
ATOM     18  S   UNL     1     -53.917 -42.788 -75.345  0.00  0.00    +0.000 S 
ATOM     19  O   UNL     1     -53.305 -43.999 -74.694  0.00  0.00    +0.000 OA
BRANCH  18  20
ATOM     20  C   UNL     1     -52.760 -42.290 -76.671  0.00  0.00    +0.000 C 
BRANCH  20  21
ATOM     21  C   UNL     1     -51.683 -41.377 -76.183  0.00  0.00    +0.000 A 
ATOM     22  C   UNL     1     -51.521 -39.978 -76.356  0.00  0.00    +0.000 A 
ATOM     23  C   UNL     1     -50.368 -39.674 -75.672  0.00  0.00    +0.000 A 
ATOM     24  C   UNL     1     -49.586 -38.444 -75.455  0.00  0.00    +0.000 C 
ATOM     25  O   UNL     1     -49.887 -40.805 -75.093  0.00  0.00    +0.000 OA
ATOM     26  N   UNL     1     -50.708 -41.872 -75.405  0.00  0.00    +0.000 NA
ENDBRANCH  20  21
ENDBRANCH  18  20
ENDBRANCH   2  18
TORSDOF 4
