REMARK VINA RESULT:    -4.724     12.998     15.686
REMARK INTER + INTRA:          -7.146
REMARK INTER:                  -6.019
REMARK INTRA:                  -1.127
REMARK UNBOUND:                -1.042
REMARK  Name = 
REMARK  8 active torsions:
REMARK  status: ('A' for Active; 'I' for Inactive)
REMARK    1  A    between atoms: C_1  and  C_2
REMARK    2  A    between atoms: C_4  and  C_5
REMARK    3  A    between atoms: C_5  and  S_6
REMARK    4  A    between atoms: S_6  and  C_8
REMARK    5  A    between atoms: C_20  and  C_21
REMARK    6  A    between atoms: C_21  and  C_23
REMARK    7  A    between atoms: C_23  and  C_24
REMARK    8  A    between atoms: C_23  and  C_25
REMARK                            x       y       z     vdW  Elec       q    Type
REMARK                         _______ _______ _______ _____ _____    ______ ____
ROOT
ATOM      1  C   UNL     1     -55.973 -42.209 -79.591  0.00  0.00    +0.000 A 
ATOM      2  N   UNL     1     -56.368 -42.763 -78.378  0.00  0.00    +0.000 N 
ATOM      3  C   UNL     1     -55.589 -42.622 -77.212  0.00  0.00    +0.000 A 
ATOM      4  C   UNL     1     -56.131 -42.791 -75.924  0.00  0.00    +0.000 A 
ATOM      5 BR   UNL     1     -57.992 -43.060 -75.676  0.00  0.00    +0.000 Br
ATOM      6  C   UNL     1     -55.319 -42.723 -74.788  0.00  0.00    +0.000 A 
ATOM      7  C   UNL     1     -53.955 -42.480 -74.923  0.00  0.00    +0.000 A 
ATOM      8  C   UNL     1     -53.395 -42.301 -76.201  0.00  0.00    +0.000 A 
ATOM      9 CL   UNL     1     -51.708 -41.935 -76.237  0.00  0.00    +0.000 Cl
ATOM     10  C   UNL     1     -54.213 -42.377 -77.347  0.00  0.00    +0.000 A 
ATOM     11  C   UNL     1     -53.714 -42.235 -78.739  0.00  0.00    +0.000 A 
ATOM     12  O   UNL     1     -52.537 -42.470 -78.998  0.00  0.00    +0.000 OA
ATOM     13  C   UNL     1     -54.698 -41.816 -79.828  0.00  0.00    +0.000 A 
ATOM     14  H   UNL     1     -57.388 -42.781 -78.240  0.00  0.00    +0.000 HD
ENDROOT
BRANCH   1  15
ATOM     15  S   UNL     1     -57.408 -41.896 -80.686  0.00  0.00    +0.000 S 
ATOM     16  O   UNL     1     -58.460 -41.358 -79.755  0.00  0.00    +0.000 OA
BRANCH  15  17
ATOM     17  C   UNL     1     -57.906 -43.571 -81.214  0.00  0.00    +0.000 C 
BRANCH  17  21
ATOM     18  C   UNL     1     -61.492 -45.673 -78.129  0.00  0.00    +0.000 C 
ATOM     19  C   UNL     1     -60.331 -45.194 -78.911  0.00  0.00    +0.000 A 
ATOM     20  C   UNL     1     -60.165 -44.374 -80.004  0.00  0.00    +0.000 A 
ATOM     21  C   UNL     1     -58.757 -44.318 -80.214  0.00  0.00    +0.000 A 
ATOM     22  N   UNL     1     -58.130 -45.084 -79.305  0.00  0.00    +0.000 NA
ATOM     23  O   UNL     1     -59.112 -45.623 -78.496  0.00  0.00    +0.000 OA
ENDBRANCH  17  21
ENDBRANCH  15  17
ENDBRANCH   1  15
BRANCH  13  24
ATOM     24  C   UNL     1     -54.138 -41.005 -80.975  0.00  0.00    +0.000 C 
ATOM     25  O   UNL     1     -54.328 -39.790 -81.024  0.00  0.00    +0.000 OA
BRANCH  24  26
ATOM     26  C   UNL     1     -53.389 -41.694 -82.116  0.00  0.00    +0.000 C 
ATOM     27  C   UNL     1     -53.946 -43.087 -82.398  0.00  0.00    +0.000 C 
ATOM     28  C   UNL     1     -53.393 -40.852 -83.394  0.00  0.00    +0.000 C 
ENDBRANCH  24  26
ENDBRANCH  13  24
TORSDOF 5
