REMARK VINA RESULT:    -5.133     11.682     13.823
REMARK INTER + INTRA:          -7.050
REMARK INTER:                  -6.279
REMARK INTRA:                  -0.771
REMARK UNBOUND:                -0.716
REMARK  Name = 
REMARK  6 active torsions:
REMARK  status: ('A' for Active; 'I' for Inactive)
REMARK    1  A    between atoms: C_1  and  C_2
REMARK    2  A    between atoms: C_2  and  C_4
REMARK    3  A    between atoms: C_5  and  S_6
REMARK    4  A    between atoms: S_6  and  C_8
REMARK    5  A    between atoms: C_8  and  C_9
REMARK    6  A    between atoms: C_11  and  C_12
REMARK                            x       y       z     vdW  Elec       q    Type
REMARK                         _______ _______ _______ _____ _____    ______ ____
ROOT
ATOM      1  C   UNL     1     -66.332 -41.105 -70.762  0.00  0.00    +0.000 A 
ATOM      2  C   UNL     1     -67.035 -40.715 -69.675  0.00  0.00    +0.000 A 
ATOM      3  N   UNL     1     -66.452 -40.383 -68.468  0.00  0.00    +0.000 N 
ATOM      4  C   UNL     1     -65.084 -40.577 -68.207  0.00  0.00    +0.000 A 
ATOM      5  C   UNL     1     -64.545 -40.280 -66.942  0.00  0.00    +0.000 A 
ATOM      6 BR   UNL     1     -65.655 -39.688 -65.517  0.00  0.00    +0.000 Br
ATOM      7  C   UNL     1     -63.182 -40.418 -66.693  0.00  0.00    +0.000 A 
ATOM      8  C   UNL     1     -62.337 -40.843 -67.715  0.00  0.00    +0.000 A 
ATOM      9  C   UNL     1     -62.845 -41.123 -68.986  0.00  0.00    +0.000 A 
ATOM     10 CL   UNL     1     -61.675 -41.652 -70.145  0.00  0.00    +0.000 Cl
ATOM     11  C   UNL     1     -64.223 -40.970 -69.245  0.00  0.00    +0.000 A 
ATOM     12  C   UNL     1     -64.846 -41.238 -70.573  0.00  0.00    +0.000 A 
ATOM     13  O   UNL     1     -64.146 -41.612 -71.509  0.00  0.00    +0.000 OA
ATOM     14  H   UNL     1     -67.063 -40.460 -67.652  0.00  0.00    +0.000 HD
ENDROOT
BRANCH   1  16
ATOM     15  C   UNL     1     -67.227 -42.893 -72.440  0.00  0.00    +0.000 C 
ATOM     16  C   UNL     1     -66.944 -41.446 -72.099  0.00  0.00    +0.000 C 
ATOM     17  O   UNL     1     -67.211 -40.576 -72.929  0.00  0.00    +0.000 OA
ENDBRANCH   1  16
BRANCH   2  18
ATOM     18  S   UNL     1     -68.858 -40.761 -69.657  0.00  0.00    +0.000 S 
ATOM     19  O   UNL     1     -69.168 -42.229 -69.530  0.00  0.00    +0.000 OA
BRANCH  18  20
ATOM     20  C   UNL     1     -69.164 -40.036 -68.004  0.00  0.00    +0.000 C 
BRANCH  20  21
ATOM     21  C   UNL     1     -69.770 -38.672 -68.088  0.00  0.00    +0.000 A 
ATOM     22  C   UNL     1     -70.128 -37.897 -69.223  0.00  0.00    +0.000 A 
ATOM     23  C   UNL     1     -70.634 -36.732 -68.701  0.00  0.00    +0.000 A 
ATOM     24  C   UNL     1     -71.134 -35.471 -69.280  0.00  0.00    +0.000 C 
ATOM     25  O   UNL     1     -70.635 -36.816 -67.346  0.00  0.00    +0.000 OA
ATOM     26  N   UNL     1     -70.102 -38.033 -66.957  0.00  0.00    +0.000 NA
ENDBRANCH  20  21
ENDBRANCH  18  20
ENDBRANCH   2  18
TORSDOF 4
