REMARK VINA RESULT:    -6.994      2.853      4.177
REMARK INTER + INTRA:          -9.958
REMARK INTER:                  -8.807
REMARK INTRA:                  -1.151
REMARK UNBOUND:                -0.920
REMARK  Name = 
REMARK  8 active torsions:
REMARK  status: ('A' for Active; 'I' for Inactive)
REMARK    1  A    between atoms: C_1  and  C_2
REMARK    2  A    between atoms: C_4  and  C_5
REMARK    3  A    between atoms: C_5  and  S_6
REMARK    4  A    between atoms: S_6  and  C_8
REMARK    5  A    between atoms: C_20  and  C_21
REMARK    6  A    between atoms: C_21  and  C_23
REMARK    7  A    between atoms: C_23  and  C_24
REMARK    8  A    between atoms: C_23  and  C_25
REMARK                            x       y       z     vdW  Elec       q    Type
REMARK                         _______ _______ _______ _____ _____    ______ ____
ROOT
ATOM      1  C   UNL     1     -55.832 -42.667 -77.639  0.00  0.00    +0.000 A 
ATOM      2  N   UNL     1     -55.145 -41.463 -77.510  0.00  0.00    +0.000 N 
ATOM      3  C   UNL     1     -53.833 -41.413 -77.000  0.00  0.00    +0.000 A 
ATOM      4  C   UNL     1     -52.978 -40.321 -77.238  0.00  0.00    +0.000 A 
ATOM      5 BR   UNL     1     -53.491 -38.916 -78.404  0.00  0.00    +0.000 Br
ATOM      6  C   UNL     1     -51.708 -40.261 -76.655  0.00  0.00    +0.000 A 
ATOM      7  C   UNL     1     -51.273 -41.294 -75.830  0.00  0.00    +0.000 A 
ATOM      8  C   UNL     1     -52.110 -42.398 -75.586  0.00  0.00    +0.000 A 
ATOM      9 CL   UNL     1     -51.434 -43.649 -74.605  0.00  0.00    +0.000 Cl
ATOM     10  C   UNL     1     -53.393 -42.456 -76.168  0.00  0.00    +0.000 A 
ATOM     11  C   UNL     1     -54.362 -43.560 -75.945  0.00  0.00    +0.000 A 
ATOM     12  O   UNL     1     -54.284 -44.252 -74.935  0.00  0.00    +0.000 OA
ATOM     13  C   UNL     1     -55.454 -43.791 -76.985  0.00  0.00    +0.000 A 
ATOM     14  H   UNL     1     -55.373 -40.772 -78.237  0.00  0.00    +0.000 HD
ENDROOT
BRANCH   1  15
ATOM     15  S   UNL     1     -57.123 -42.567 -78.936  0.00  0.00    +0.000 S 
ATOM     16  O   UNL     1     -56.684 -41.409 -79.792  0.00  0.00    +0.000 OA
BRANCH  15  17
ATOM     17  C   UNL     1     -58.612 -42.067 -78.008  0.00  0.00    +0.000 C 
BRANCH  17  21
ATOM     18  C   UNL     1     -58.083 -41.062 -72.957  0.00  0.00    +0.000 C 
ATOM     19  C   UNL     1     -58.135 -41.170 -74.431  0.00  0.00    +0.000 A 
ATOM     20  C   UNL     1     -58.530 -42.140 -75.324  0.00  0.00    +0.000 A 
ATOM     21  C   UNL     1     -58.340 -41.559 -76.611  0.00  0.00    +0.000 A 
ATOM     22  N   UNL     1     -57.840 -40.318 -76.481  0.00  0.00    +0.000 NA
ATOM     23  O   UNL     1     -57.718 -40.080 -75.125  0.00  0.00    +0.000 OA
ENDBRANCH  17  21
ENDBRANCH  15  17
ENDBRANCH   1  15
BRANCH  13  24
ATOM     24  C   UNL     1     -55.928 -45.216 -77.168  0.00  0.00    +0.000 C 
ATOM     25  O   UNL     1     -57.112 -45.502 -76.993  0.00  0.00    +0.000 OA
BRANCH  24  26
ATOM     26  C   UNL     1     -54.930 -46.324 -77.506  0.00  0.00    +0.000 C 
ATOM     27  C   UNL     1     -54.899 -47.405 -76.429  0.00  0.00    +0.000 C 
ATOM     28  C   UNL     1     -55.210 -46.948 -78.876  0.00  0.00    +0.000 C 
ENDBRANCH  24  26
ENDBRANCH  13  24
TORSDOF 5
