REMARK VINA RESULT:    -6.123     20.316     24.124
REMARK INTER + INTRA:          -8.786
REMARK INTER:                  -7.751
REMARK INTRA:                  -1.036
REMARK UNBOUND:                -0.874
REMARK  Name = 
REMARK  8 active torsions:
REMARK  status: ('A' for Active; 'I' for Inactive)
REMARK    1  A    between atoms: C_1  and  C_2
REMARK    2  A    between atoms: C_4  and  C_5
REMARK    3  A    between atoms: C_5  and  S_6
REMARK    4  A    between atoms: S_6  and  C_8
REMARK    5  A    between atoms: C_20  and  C_21
REMARK    6  A    between atoms: C_21  and  C_23
REMARK    7  A    between atoms: C_23  and  C_24
REMARK    8  A    between atoms: C_23  and  C_25
REMARK                            x       y       z     vdW  Elec       q    Type
REMARK                         _______ _______ _______ _____ _____    ______ ____
ROOT
ATOM      1  C   UNL     1     -66.281 -48.431 -56.048  0.00  0.00    +0.000 A 
ATOM      2  N   UNL     1     -66.898 -48.051 -57.236  0.00  0.00    +0.000 N 
ATOM      3  C   UNL     1     -68.253 -48.343 -57.491  0.00  0.00    +0.000 A 
ATOM      4  C   UNL     1     -69.003 -47.638 -58.451  0.00  0.00    +0.000 A 
ATOM      5 BR   UNL     1     -68.272 -46.135 -59.349  0.00  0.00    +0.000 Br
ATOM      6  C   UNL     1     -70.322 -47.999 -58.740  0.00  0.00    +0.000 A 
ATOM      7  C   UNL     1     -70.912 -49.066 -58.069  0.00  0.00    +0.000 A 
ATOM      8  C   UNL     1     -70.183 -49.779 -57.100  0.00  0.00    +0.000 A 
ATOM      9 CL   UNL     1     -71.043 -51.034 -56.285  0.00  0.00    +0.000 Cl
ATOM     10  C   UNL     1     -68.849 -49.419 -56.814  0.00  0.00    +0.000 A 
ATOM     11  C   UNL     1     -67.985 -50.127 -55.835  0.00  0.00    +0.000 A 
ATOM     12  O   UNL     1     -68.219 -51.296 -55.541  0.00  0.00    +0.000 OA
ATOM     13  C   UNL     1     -66.802 -49.377 -55.231  0.00  0.00    +0.000 A 
ATOM     14  H   UNL     1     -66.546 -47.166 -57.625  0.00  0.00    +0.000 HD
ENDROOT
BRANCH   1  15
ATOM     15  S   UNL     1     -64.851 -47.353 -55.660  0.00  0.00    +0.000 S 
ATOM     16  O   UNL     1     -65.261 -46.655 -54.391  0.00  0.00    +0.000 OA
BRANCH  15  17
ATOM     17  C   UNL     1     -64.862 -46.136 -57.019  0.00  0.00    +0.000 C 
BRANCH  17  21
ATOM     18  C   UNL     1     -61.944 -47.073 -61.191  0.00  0.00    +0.000 C 
ATOM     19  C   UNL     1     -62.599 -46.777 -59.898  0.00  0.00    +0.000 A 
ATOM     20  C   UNL     1     -63.898 -46.586 -59.485  0.00  0.00    +0.000 A 
ATOM     21  C   UNL     1     -63.812 -46.368 -58.080  0.00  0.00    +0.000 A 
ATOM     22  N   UNL     1     -62.526 -46.407 -57.691  0.00  0.00    +0.000 NA
ATOM     23  O   UNL     1     -61.777 -46.665 -58.823  0.00  0.00    +0.000 OA
ENDBRANCH  17  21
ENDBRANCH  15  17
ENDBRANCH   1  15
BRANCH  13  24
ATOM     24  C   UNL     1     -66.405 -49.756 -53.821  0.00  0.00    +0.000 C 
ATOM     25  O   UNL     1     -67.051 -49.335 -52.863  0.00  0.00    +0.000 OA
BRANCH  24  26
ATOM     26  C   UNL     1     -65.161 -50.609 -53.571  0.00  0.00    +0.000 C 
ATOM     27  C   UNL     1     -64.134 -49.874 -52.714  0.00  0.00    +0.000 C 
ATOM     28  C   UNL     1     -65.510 -51.960 -52.941  0.00  0.00    +0.000 C 
ENDBRANCH  24  26
ENDBRANCH  13  24
TORSDOF 5
