MODEL 1
REMARK VINA RESULT:    -7.499      0.000      0.000
REMARK INTER + INTRA:         -10.581
REMARK INTER:                  -9.690
REMARK INTRA:                  -0.891
REMARK UNBOUND:                -0.891
REMARK  Name = 
REMARK  6 active torsions:
REMARK  status: ('A' for Active; 'I' for Inactive)
REMARK    1  A    between atoms: C_1  and  C_2
REMARK    2  A    between atoms: C_4  and  C_5
REMARK    3  A    between atoms: C_5  and  S_6
REMARK    4  A    between atoms: S_6  and  C_8
REMARK    5  A    between atoms: C_20  and  C_21
REMARK    6  A    between atoms: C_21  and  C_23
REMARK                            x       y       z     vdW  Elec       q    Type
REMARK                         _______ _______ _______ _____ _____    ______ ____
ROOT
ATOM      1  C   UNL     1     -55.695 -42.730 -76.723  0.00  0.00    +0.000 A 
ATOM      2  N   UNL     1     -54.364 -43.072 -76.414  0.00  0.00    +0.000 N 
ATOM      3  C   UNL     1     -53.368 -42.064 -76.294  0.00  0.00    +0.000 A 
ATOM      4  C   UNL     1     -52.147 -42.267 -75.624  0.00  0.00    +0.000 A 
ATOM      5 BR   UNL     1     -51.812 -43.868 -74.663  0.00  0.00    +0.000 Br
ATOM      6  C   UNL     1     -51.147 -41.284 -75.624  0.00  0.00    +0.000 A 
ATOM      7  C   UNL     1     -51.373 -40.067 -76.278  0.00  0.00    +0.000 A 
ATOM      8  C   UNL     1     -52.576 -39.842 -76.947  0.00  0.00    +0.000 A 
ATOM      9 CL   UNL     1     -52.785 -38.283 -77.659  0.00  0.00    +0.000 Cl
ATOM     10  C   UNL     1     -53.554 -40.848 -76.970  0.00  0.00    +0.000 A 
ATOM     11  C   UNL     1     -54.819 -40.734 -77.722  0.00  0.00    +0.000 A 
ATOM     12  O   UNL     1     -54.900 -40.078 -78.753  0.00  0.00    +0.000 OA
ATOM     13  C   UNL     1     -56.002 -41.516 -77.232  0.00  0.00    +0.000 A 
ATOM     14  H   UNL     1     -54.307 -43.799 -75.688  0.00  0.00    +0.000 HD
ENDROOT
BRANCH   1  15
ATOM     15  S   UNL     1     -56.896 -43.858 -75.968  0.00  0.00    +0.000 S 
ATOM     16  O   UNL     1     -57.636 -44.446 -77.138  0.00  0.00    +0.000 OA
BRANCH  15  17
ATOM     17  C   UNL     1     -58.095 -42.902 -74.992  0.00  0.00    +0.000 C 
BRANCH  17  21
ATOM     18  C   UNL     1     -55.929 -40.813 -70.849  0.00  0.00    +0.000 C 
ATOM     19  C   UNL     1     -56.705 -41.267 -72.018  0.00  0.00    +0.000 A 
ATOM     20  C   UNL     1     -56.508 -42.204 -73.005  0.00  0.00    +0.000 A 
ATOM     21  C   UNL     1     -57.704 -42.186 -73.756  0.00  0.00    +0.000 A 
ATOM     22  N   UNL     1     -58.540 -41.243 -73.288  0.00  0.00    +0.000 NA
ATOM     23  O   UNL     1     -57.911 -40.673 -72.201  0.00  0.00    +0.000 OA
ENDBRANCH  17  21
ENDBRANCH  15  17
ENDBRANCH   1  15
BRANCH  13  24
ATOM     24  C   UNL     1     -57.276 -40.743 -77.237  0.00  0.00    +0.000 C 
ATOM     25  O   UNL     1     -57.488 -39.893 -76.389  0.00  0.00    +0.000 OA
BRANCH  24  26
ATOM     26  C   UNL     1     -58.254 -40.990 -78.313  0.00  0.00    +0.000 C 
ATOM     27  C   UNL     1     -59.556 -40.231 -78.320  0.00  0.00    +0.000 C 
ATOM     28  C   UNL     1     -59.556 -41.703 -78.039  0.00  0.00    +0.000 C 
ENDBRANCH  24  26
ENDBRANCH  13  24
TORSDOF 5
ENDMDL
MODEL 2
REMARK VINA RESULT:    -7.275     10.188     12.555
REMARK INTER + INTRA:         -10.293
REMARK INTER:                  -9.377
REMARK INTRA:                  -0.916
REMARK UNBOUND:                -0.891
REMARK  Name = 
REMARK  6 active torsions:
REMARK  status: ('A' for Active; 'I' for Inactive)
REMARK    1  A    between atoms: C_1  and  C_2
REMARK    2  A    between atoms: C_4  and  C_5
REMARK    3  A    between atoms: C_5  and  S_6
REMARK    4  A    between atoms: S_6  and  C_8
REMARK    5  A    between atoms: C_20  and  C_21
REMARK    6  A    between atoms: C_21  and  C_23
REMARK                            x       y       z     vdW  Elec       q    Type
REMARK                         _______ _______ _______ _____ _____    ______ ____
ROOT
ATOM      1  C   UNL     1     -55.536 -41.903 -63.171  0.00  0.00    +0.000 A 
ATOM      2  N   UNL     1     -54.822 -43.113 -63.073  0.00  0.00    +0.000 N 
ATOM      3  C   UNL     1     -53.424 -43.152 -63.330  0.00  0.00    +0.000 A 
ATOM      4  C   UNL     1     -52.590 -44.195 -62.886  0.00  0.00    +0.000 A 
ATOM      5 BR   UNL     1     -53.251 -45.557 -61.742  0.00  0.00    +0.000 Br
ATOM      6  C   UNL     1     -51.239 -44.250 -63.255  0.00  0.00    +0.000 A 
ATOM      7  C   UNL     1     -50.698 -43.238 -64.056  0.00  0.00    +0.000 A 
ATOM      8  C   UNL     1     -51.504 -42.192 -64.506  0.00  0.00    +0.000 A 
ATOM      9 CL   UNL     1     -50.726 -40.957 -65.427  0.00  0.00    +0.000 Cl
ATOM     10  C   UNL     1     -52.864 -42.168 -64.159  0.00  0.00    +0.000 A 
ATOM     11  C   UNL     1     -53.811 -41.152 -64.657  0.00  0.00    +0.000 A 
ATOM     12  O   UNL     1     -53.670 -40.620 -65.752  0.00  0.00    +0.000 OA
ATOM     13  C   UNL     1     -55.012 -40.837 -63.815  0.00  0.00    +0.000 A 
ATOM     14  H   UNL     1     -55.109 -43.669 -62.255  0.00  0.00    +0.000 HD
ENDROOT
BRANCH   1  15
ATOM     15  S   UNL     1     -56.924 -41.817 -62.009  0.00  0.00    +0.000 S 
ATOM     16  O   UNL     1     -56.608 -42.865 -60.977  0.00  0.00    +0.000 OA
BRANCH  15  17
ATOM     17  C   UNL     1     -58.452 -42.325 -62.850  0.00  0.00    +0.000 C 
BRANCH  17  21
ATOM     18  C   UNL     1     -58.902 -42.582 -67.944  0.00  0.00    +0.000 C 
ATOM     19  C   UNL     1     -58.642 -42.676 -66.495  0.00  0.00    +0.000 A 
ATOM     20  C   UNL     1     -58.986 -41.919 -65.401  0.00  0.00    +0.000 A 
ATOM     21  C   UNL     1     -58.481 -42.641 -64.297  0.00  0.00    +0.000 A 
ATOM     22  N   UNL     1     -57.811 -43.730 -64.712  0.00  0.00    +0.000 NA
ATOM     23  O   UNL     1     -57.917 -43.748 -66.088  0.00  0.00    +0.000 OA
ENDBRANCH  17  21
ENDBRANCH  15  17
ENDBRANCH   1  15
BRANCH  13  24
ATOM     24  C   UNL     1     -55.303 -39.379 -63.708  0.00  0.00    +0.000 C 
ATOM     25  O   UNL     1     -56.434 -38.958 -63.881  0.00  0.00    +0.000 OA
BRANCH  24  26
ATOM     26  C   UNL     1     -54.208 -38.460 -63.341  0.00  0.00    +0.000 C 
ATOM     27  C   UNL     1     -54.507 -36.999 -63.128  0.00  0.00    +0.000 C 
ATOM     28  C   UNL     1     -53.696 -37.425 -64.314  0.00  0.00    +0.000 C 
ENDBRANCH  24  26
ENDBRANCH  13  24
TORSDOF 5
ENDMDL
MODEL 3
REMARK VINA RESULT:    -6.904      2.741      4.080
REMARK INTER + INTRA:          -9.813
REMARK INTER:                  -8.905
REMARK INTRA:                  -0.908
REMARK UNBOUND:                -0.891
REMARK  Name = 
REMARK  6 active torsions:
REMARK  status: ('A' for Active; 'I' for Inactive)
REMARK    1  A    between atoms: C_1  and  C_2
REMARK    2  A    between atoms: C_4  and  C_5
REMARK    3  A    between atoms: C_5  and  S_6
REMARK    4  A    between atoms: S_6  and  C_8
REMARK    5  A    between atoms: C_20  and  C_21
REMARK    6  A    between atoms: C_21  and  C_23
REMARK                            x       y       z     vdW  Elec       q    Type
REMARK                         _______ _______ _______ _____ _____    ______ ____
ROOT
ATOM      1  C   UNL     1     -55.669 -42.191 -76.861  0.00  0.00    +0.000 A 
ATOM      2  N   UNL     1     -54.903 -41.013 -76.950  0.00  0.00    +0.000 N 
ATOM      3  C   UNL     1     -53.507 -41.035 -76.683  0.00  0.00    +0.000 A 
ATOM      4  C   UNL     1     -52.625 -40.027 -77.117  0.00  0.00    +0.000 A 
ATOM      5 BR   UNL     1     -53.218 -38.634 -78.260  0.00  0.00    +0.000 Br
ATOM      6  C   UNL     1     -51.276 -40.032 -76.739  0.00  0.00    +0.000 A 
ATOM      7  C   UNL     1     -50.784 -41.069 -75.938  0.00  0.00    +0.000 A 
ATOM      8  C   UNL     1     -51.638 -42.081 -75.497  0.00  0.00    +0.000 A 
ATOM      9 CL   UNL     1     -50.920 -43.352 -74.576  0.00  0.00    +0.000 Cl
ATOM     10  C   UNL     1     -52.995 -42.046 -75.853  0.00  0.00    +0.000 A 
ATOM     11  C   UNL     1     -53.989 -43.022 -75.366  0.00  0.00    +0.000 A 
ATOM     12  O   UNL     1     -53.878 -43.563 -74.273  0.00  0.00    +0.000 OA
ATOM     13  C   UNL     1     -55.196 -43.281 -76.217  0.00  0.00    +0.000 A 
ATOM     14  H   UNL     1     -55.160 -40.442 -77.767  0.00  0.00    +0.000 HD
ENDROOT
BRANCH   1  15
ATOM     15  S   UNL     1     -57.051 -42.214 -78.033  0.00  0.00    +0.000 S 
ATOM     16  O   UNL     1     -56.758 -41.074 -78.971  0.00  0.00    +0.000 OA
BRANCH  15  17
ATOM     17  C   UNL     1     -58.594 -41.816 -77.159  0.00  0.00    +0.000 C 
BRANCH  17  21
ATOM     18  C   UNL     1     -59.047 -41.535 -72.067  0.00  0.00    +0.000 C 
ATOM     19  C   UNL     1     -58.779 -41.454 -73.515  0.00  0.00    +0.000 A 
ATOM     20  C   UNL     1     -59.150 -42.198 -74.610  0.00  0.00    +0.000 A 
ATOM     21  C   UNL     1     -58.614 -41.497 -75.713  0.00  0.00    +0.000 A 
ATOM     22  N   UNL     1     -57.904 -40.434 -75.297  0.00  0.00    +0.000 NA
ATOM     23  O   UNL     1     -58.013 -40.411 -73.922  0.00  0.00    +0.000 OA
ENDBRANCH  17  21
ENDBRANCH  15  17
ENDBRANCH   1  15
BRANCH  13  24
ATOM     24  C   UNL     1     -55.549 -44.725 -76.333  0.00  0.00    +0.000 C 
ATOM     25  O   UNL     1     -56.697 -45.098 -76.163  0.00  0.00    +0.000 OA
BRANCH  24  26
ATOM     26  C   UNL     1     -54.494 -45.687 -76.703  0.00  0.00    +0.000 C 
ATOM     27  C   UNL     1     -54.836 -47.149 -76.832  0.00  0.00    +0.000 C 
ATOM     28  C   UNL     1     -53.963 -46.689 -75.705  0.00  0.00    +0.000 C 
ENDBRANCH  24  26
ENDBRANCH  13  24
TORSDOF 5
ENDMDL
MODEL 4
REMARK VINA RESULT:    -6.686      3.395      5.513
REMARK INTER + INTRA:          -9.531
REMARK INTER:                  -8.671
REMARK INTRA:                  -0.859
REMARK UNBOUND:                -0.891
REMARK  Name = 
REMARK  6 active torsions:
REMARK  status: ('A' for Active; 'I' for Inactive)
REMARK    1  A    between atoms: C_1  and  C_2
REMARK    2  A    between atoms: C_4  and  C_5
REMARK    3  A    between atoms: C_5  and  S_6
REMARK    4  A    between atoms: S_6  and  C_8
REMARK    5  A    between atoms: C_20  and  C_21
REMARK    6  A    between atoms: C_21  and  C_23
REMARK                            x       y       z     vdW  Elec       q    Type
REMARK                         _______ _______ _______ _____ _____    ______ ____
ROOT
ATOM      1  C   UNL     1     -57.810 -43.216 -77.248  0.00  0.00    +0.000 A 
ATOM      2  N   UNL     1     -57.308 -44.494 -77.561  0.00  0.00    +0.000 N 
ATOM      3  C   UNL     1     -56.196 -45.028 -76.853  0.00  0.00    +0.000 A 
ATOM      4  C   UNL     1     -55.889 -46.401 -76.827  0.00  0.00    +0.000 A 
ATOM      5 BR   UNL     1     -57.058 -47.680 -77.600  0.00  0.00    +0.000 Br
ATOM      6  C   UNL     1     -54.722 -46.873 -76.209  0.00  0.00    +0.000 A 
ATOM      7  C   UNL     1     -53.858 -45.968 -75.582  0.00  0.00    +0.000 A 
ATOM      8  C   UNL     1     -54.142 -44.603 -75.592  0.00  0.00    +0.000 A 
ATOM      9 CL   UNL     1     -53.051 -43.579 -74.729  0.00  0.00    +0.000 Cl
ATOM     10  C   UNL     1     -55.294 -44.140 -76.245  0.00  0.00    +0.000 A 
ATOM     11  C   UNL     1     -55.632 -42.710 -76.383  0.00  0.00    +0.000 A 
ATOM     12  O   UNL     1     -54.766 -41.846 -76.445  0.00  0.00    +0.000 OA
ATOM     13  C   UNL     1     -57.078 -42.339 -76.526  0.00  0.00    +0.000 A 
ATOM     14  H   UNL     1     -58.059 -45.178 -77.728  0.00  0.00    +0.000 HD
ENDROOT
BRANCH   1  15
ATOM     15  S   UNL     1     -59.598 -43.088 -77.509  0.00  0.00    +0.000 S 
ATOM     16  O   UNL     1     -60.050 -44.512 -77.680  0.00  0.00    +0.000 OA
BRANCH  15  17
ATOM     17  C   UNL     1     -59.922 -42.223 -79.074  0.00  0.00    +0.000 C 
BRANCH  17  21
ATOM     18  C   UNL     1     -61.590 -37.383 -78.982  0.00  0.00    +0.000 C 
ATOM     19  C   UNL     1     -61.286 -38.819 -79.120  0.00  0.00    +0.000 A 
ATOM     20  C   UNL     1     -60.220 -39.619 -78.782  0.00  0.00    +0.000 A 
ATOM     21  C   UNL     1     -60.636 -40.926 -79.119  0.00  0.00    +0.000 A 
ATOM     22  N   UNL     1     -61.852 -40.901 -79.692  0.00  0.00    +0.000 NA
ATOM     23  O   UNL     1     -62.254 -39.582 -79.688  0.00  0.00    +0.000 OA
ENDBRANCH  17  21
ENDBRANCH  15  17
ENDBRANCH   1  15
BRANCH  13  24
ATOM     24  C   UNL     1     -57.480 -41.164 -75.701  0.00  0.00    +0.000 C 
ATOM     25  O   UNL     1     -57.475 -40.042 -76.178  0.00  0.00    +0.000 OA
BRANCH  24  26
ATOM     26  C   UNL     1     -57.929 -41.388 -74.314  0.00  0.00    +0.000 C 
ATOM     27  C   UNL     1     -57.948 -40.233 -73.346  0.00  0.00    +0.000 C 
ATOM     28  C   UNL     1     -56.957 -41.341 -73.160  0.00  0.00    +0.000 C 
ENDBRANCH  24  26
ENDBRANCH  13  24
TORSDOF 5
ENDMDL
MODEL 5
REMARK VINA RESULT:    -6.684     12.057     14.128
REMARK INTER + INTRA:          -9.529
REMARK INTER:                  -8.654
REMARK INTRA:                  -0.875
REMARK UNBOUND:                -0.891
REMARK  Name = 
REMARK  6 active torsions:
REMARK  status: ('A' for Active; 'I' for Inactive)
REMARK    1  A    between atoms: C_1  and  C_2
REMARK    2  A    between atoms: C_4  and  C_5
REMARK    3  A    between atoms: C_5  and  S_6
REMARK    4  A    between atoms: S_6  and  C_8
REMARK    5  A    between atoms: C_20  and  C_21
REMARK    6  A    between atoms: C_21  and  C_23
REMARK                            x       y       z     vdW  Elec       q    Type
REMARK                         _______ _______ _______ _____ _____    ______ ____
ROOT
ATOM      1  C   UNL     1     -56.005 -42.458 -62.931  0.00  0.00    +0.000 A 
ATOM      2  N   UNL     1     -55.056 -43.495 -63.034  0.00  0.00    +0.000 N 
ATOM      3  C   UNL     1     -53.704 -43.207 -63.365  0.00  0.00    +0.000 A 
ATOM      4  C   UNL     1     -52.644 -44.098 -63.109  0.00  0.00    +0.000 A 
ATOM      5 BR   UNL     1     -52.925 -45.697 -62.127  0.00  0.00    +0.000 Br
ATOM      6  C   UNL     1     -51.343 -43.823 -63.551  0.00  0.00    +0.000 A 
ATOM      7  C   UNL     1     -51.081 -42.630 -64.234  0.00  0.00    +0.000 A 
ATOM      8  C   UNL     1     -52.114 -41.731 -64.498  0.00  0.00    +0.000 A 
ATOM      9 CL   UNL     1     -51.675 -40.257 -65.283  0.00  0.00    +0.000 Cl
ATOM     10  C   UNL     1     -53.419 -42.035 -64.082  0.00  0.00    +0.000 A 
ATOM     11  C   UNL     1     -54.588 -41.187 -64.390  0.00  0.00    +0.000 A 
ATOM     12  O   UNL     1     -54.643 -40.510 -65.408  0.00  0.00    +0.000 OA
ATOM     13  C   UNL     1     -55.758 -41.236 -63.453  0.00  0.00    +0.000 A 
ATOM     14  H   UNL     1     -55.160 -44.193 -62.285  0.00  0.00    +0.000 HD
ENDROOT
BRANCH   1  15
ATOM     15  S   UNL     1     -57.286 -42.807 -61.699  0.00  0.00    +0.000 S 
ATOM     16  O   UNL     1     -58.546 -42.255 -62.309  0.00  0.00    +0.000 OA
BRANCH  15  17
ATOM     17  C   UNL     1     -56.951 -41.854 -60.189  0.00  0.00    +0.000 C 
BRANCH  17  21
ATOM     18  C   UNL     1     -55.724 -43.861 -55.641  0.00  0.00    +0.000 C 
ATOM     19  C   UNL     1     -55.905 -43.385 -57.024  0.00  0.00    +0.000 A 
ATOM     20  C   UNL     1     -56.871 -42.657 -57.678  0.00  0.00    +0.000 A 
ATOM     21  C   UNL     1     -56.361 -42.480 -58.983  0.00  0.00    +0.000 A 
ATOM     22  N   UNL     1     -55.190 -43.127 -59.123  0.00  0.00    +0.000 NA
ATOM     23  O   UNL     1     -54.909 -43.689 -57.895  0.00  0.00    +0.000 OA
ENDBRANCH  17  21
ENDBRANCH  15  17
ENDBRANCH   1  15
BRANCH  13  24
ATOM     24  C   UNL     1     -56.328 -39.896 -63.135  0.00  0.00    +0.000 C 
ATOM     25  O   UNL     1     -57.459 -39.605 -63.482  0.00  0.00    +0.000 OA
BRANCH  24  26
ATOM     26  C   UNL     1     -55.516 -38.946 -62.351  0.00  0.00    +0.000 C 
ATOM     27  C   UNL     1     -55.990 -37.525 -62.187  0.00  0.00    +0.000 C 
ATOM     28  C   UNL     1     -54.777 -37.810 -63.019  0.00  0.00    +0.000 C 
ENDBRANCH  24  26
ENDBRANCH  13  24
TORSDOF 5
ENDMDL
MODEL 6
REMARK VINA RESULT:    -6.212      3.466      5.409
REMARK INTER + INTRA:          -8.918
REMARK INTER:                  -8.012
REMARK INTRA:                  -0.906
REMARK UNBOUND:                -0.891
REMARK  Name = 
REMARK  6 active torsions:
REMARK  status: ('A' for Active; 'I' for Inactive)
REMARK    1  A    between atoms: C_1  and  C_2
REMARK    2  A    between atoms: C_4  and  C_5
REMARK    3  A    between atoms: C_5  and  S_6
REMARK    4  A    between atoms: S_6  and  C_8
REMARK    5  A    between atoms: C_20  and  C_21
REMARK    6  A    between atoms: C_21  and  C_23
REMARK                            x       y       z     vdW  Elec       q    Type
REMARK                         _______ _______ _______ _____ _____    ______ ____
ROOT
ATOM      1  C   UNL     1     -56.646 -41.520 -78.561  0.00  0.00    +0.000 A 
ATOM      2  N   UNL     1     -56.009 -41.691 -79.806  0.00  0.00    +0.000 N 
ATOM      3  C   UNL     1     -54.611 -41.937 -79.875  0.00  0.00    +0.000 A 
ATOM      4  C   UNL     1     -53.984 -42.492 -81.006  0.00  0.00    +0.000 A 
ATOM      5 BR   UNL     1     -55.002 -43.129 -82.475  0.00  0.00    +0.000 Br
ATOM      6  C   UNL     1     -52.589 -42.616 -81.076  0.00  0.00    +0.000 A 
ATOM      7  C   UNL     1     -51.804 -42.206 -79.992  0.00  0.00    +0.000 A 
ATOM      8  C   UNL     1     -52.402 -41.654 -78.860  0.00  0.00    +0.000 A 
ATOM      9 CL   UNL     1     -51.352 -41.248 -77.551  0.00  0.00    +0.000 Cl
ATOM     10  C   UNL     1     -53.796 -41.503 -78.817  0.00  0.00    +0.000 A 
ATOM     11  C   UNL     1     -54.510 -40.853 -77.701  0.00  0.00    +0.000 A 
ATOM     12  O   UNL     1     -53.993 -39.964 -77.036  0.00  0.00    +0.000 OA
ATOM     13  C   UNL     1     -55.931 -41.257 -77.445  0.00  0.00    +0.000 A 
ATOM     14  H   UNL     1     -56.564 -42.269 -80.451  0.00  0.00    +0.000 HD
ENDROOT
BRANCH   1  15
ATOM     15  S   UNL     1     -58.355 -42.123 -78.565  0.00  0.00    +0.000 S 
ATOM     16  O   UNL     1     -58.224 -43.604 -78.795  0.00  0.00    +0.000 OA
BRANCH  15  17
ATOM     17  C   UNL     1     -59.240 -41.427 -79.991  0.00  0.00    +0.000 C 
BRANCH  17  21
ATOM     18  C   UNL     1     -61.941 -37.269 -78.715  0.00  0.00    +0.000 C 
ATOM     19  C   UNL     1     -61.218 -38.421 -79.284  0.00  0.00    +0.000 A 
ATOM     20  C   UNL     1     -60.385 -39.388 -78.772  0.00  0.00    +0.000 A 
ATOM     21  C   UNL     1     -60.124 -40.246 -79.864  0.00  0.00    +0.000 A 
ATOM     22  N   UNL     1     -60.710 -39.779 -80.980  0.00  0.00    +0.000 NA
ATOM     23  O   UNL     1     -61.393 -38.639 -80.612  0.00  0.00    +0.000 OA
ENDBRANCH  17  21
ENDBRANCH  15  17
ENDBRANCH   1  15
BRANCH  13  24
ATOM     24  C   UNL     1     -56.246 -41.460 -76.002  0.00  0.00    +0.000 C 
ATOM     25  O   UNL     1     -56.949 -40.664 -75.403  0.00  0.00    +0.000 OA
BRANCH  24  26
ATOM     26  C   UNL     1     -55.731 -42.665 -75.324  0.00  0.00    +0.000 C 
ATOM     27  C   UNL     1     -55.721 -43.981 -76.059  0.00  0.00    +0.000 C 
ATOM     28  C   UNL     1     -56.656 -43.783 -74.905  0.00  0.00    +0.000 C 
ENDBRANCH  24  26
ENDBRANCH  13  24
TORSDOF 5
ENDMDL
MODEL 7
REMARK VINA RESULT:    -6.126      3.484      5.460
REMARK INTER + INTRA:          -8.808
REMARK INTER:                  -7.637
REMARK INTRA:                  -1.170
REMARK UNBOUND:                -0.891
REMARK  Name = 
REMARK  6 active torsions:
REMARK  status: ('A' for Active; 'I' for Inactive)
REMARK    1  A    between atoms: C_1  and  C_2
REMARK    2  A    between atoms: C_4  and  C_5
REMARK    3  A    between atoms: C_5  and  S_6
REMARK    4  A    between atoms: S_6  and  C_8
REMARK    5  A    between atoms: C_20  and  C_21
REMARK    6  A    between atoms: C_21  and  C_23
REMARK                            x       y       z     vdW  Elec       q    Type
REMARK                         _______ _______ _______ _____ _____    ______ ____
ROOT
ATOM      1  C   UNL     1     -55.756 -41.617 -78.359  0.00  0.00    +0.000 A 
ATOM      2  N   UNL     1     -56.190 -42.658 -79.201  0.00  0.00    +0.000 N 
ATOM      3  C   UNL     1     -55.275 -43.319 -80.066  0.00  0.00    +0.000 A 
ATOM      4  C   UNL     1     -55.527 -44.584 -80.628  0.00  0.00    +0.000 A 
ATOM      5 BR   UNL     1     -57.052 -45.594 -80.124  0.00  0.00    +0.000 Br
ATOM      6  C   UNL     1     -54.648 -45.151 -81.562  0.00  0.00    +0.000 A 
ATOM      7  C   UNL     1     -53.484 -44.463 -81.923  0.00  0.00    +0.000 A 
ATOM      8  C   UNL     1     -53.212 -43.209 -81.377  0.00  0.00    +0.000 A 
ATOM      9 CL   UNL     1     -51.716 -42.476 -81.832  0.00  0.00    +0.000 Cl
ATOM     10  C   UNL     1     -54.117 -42.636 -80.471  0.00  0.00    +0.000 A 
ATOM     11  C   UNL     1     -53.957 -41.281 -79.909  0.00  0.00    +0.000 A 
ATOM     12  O   UNL     1     -53.399 -40.387 -80.531  0.00  0.00    +0.000 OA
ATOM     13  C   UNL     1     -54.573 -40.998 -78.571  0.00  0.00    +0.000 A 
ATOM     14  H   UNL     1     -56.846 -43.294 -78.728  0.00  0.00    +0.000 HD
ENDROOT
BRANCH   1  15
ATOM     15  S   UNL     1     -56.686 -41.544 -76.805  0.00  0.00    +0.000 S 
ATOM     16  O   UNL     1     -56.844 -40.072 -76.538  0.00  0.00    +0.000 OA
BRANCH  15  17
ATOM     17  C   UNL     1     -55.677 -42.235 -75.461  0.00  0.00    +0.000 C 
BRANCH  17  21
ATOM     18  C   UNL     1     -54.546 -47.184 -76.128  0.00  0.00    +0.000 C 
ATOM     19  C   UNL     1     -54.666 -45.734 -75.887  0.00  0.00    +0.000 A 
ATOM     20  C   UNL     1     -55.675 -44.811 -76.026  0.00  0.00    +0.000 A 
ATOM     21  C   UNL     1     -55.130 -43.610 -75.521  0.00  0.00    +0.000 A 
ATOM     22  N   UNL     1     -53.845 -43.788 -75.166  0.00  0.00    +0.000 NA
ATOM     23  O   UNL     1     -53.561 -45.118 -75.396  0.00  0.00    +0.000 OA
ENDBRANCH  17  21
ENDBRANCH  15  17
ENDBRANCH   1  15
BRANCH  13  24
ATOM     24  C   UNL     1     -53.686 -40.226 -77.655  0.00  0.00    +0.000 C 
ATOM     25  O   UNL     1     -53.806 -39.018 -77.550  0.00  0.00    +0.000 OA
BRANCH  24  26
ATOM     26  C   UNL     1     -52.694 -40.956 -76.842  0.00  0.00    +0.000 C 
ATOM     27  C   UNL     1     -51.485 -40.226 -76.317  0.00  0.00    +0.000 C 
ATOM     28  C   UNL     1     -51.318 -41.268 -77.381  0.00  0.00    +0.000 C 
ENDBRANCH  24  26
ENDBRANCH  13  24
TORSDOF 5
ENDMDL
MODEL 8
REMARK VINA RESULT:    -6.079      4.249      6.289
REMARK INTER + INTRA:          -8.747
REMARK INTER:                  -7.675
REMARK INTRA:                  -1.071
REMARK UNBOUND:                -0.891
REMARK  Name = 
REMARK  6 active torsions:
REMARK  status: ('A' for Active; 'I' for Inactive)
REMARK    1  A    between atoms: C_1  and  C_2
REMARK    2  A    between atoms: C_4  and  C_5
REMARK    3  A    between atoms: C_5  and  S_6
REMARK    4  A    between atoms: S_6  and  C_8
REMARK    5  A    between atoms: C_20  and  C_21
REMARK    6  A    between atoms: C_21  and  C_23
REMARK                            x       y       z     vdW  Elec       q    Type
REMARK                         _______ _______ _______ _____ _____    ______ ____
ROOT
ATOM      1  C   UNL     1     -58.180 -44.341 -77.667  0.00  0.00    +0.000 A 
ATOM      2  N   UNL     1     -58.104 -45.698 -78.033  0.00  0.00    +0.000 N 
ATOM      3  C   UNL     1     -57.165 -46.565 -77.409  0.00  0.00    +0.000 A 
ATOM      4  C   UNL     1     -57.285 -47.968 -77.427  0.00  0.00    +0.000 A 
ATOM      5 BR   UNL     1     -58.827 -48.809 -78.144  0.00  0.00    +0.000 Br
ATOM      6  C   UNL     1     -56.281 -48.788 -76.895  0.00  0.00    +0.000 A 
ATOM      7  C   UNL     1     -55.150 -48.207 -76.310  0.00  0.00    +0.000 A 
ATOM      8  C   UNL     1     -55.010 -46.820 -76.279  0.00  0.00    +0.000 A 
ATOM      9 CL   UNL     1     -53.614 -46.201 -75.471  0.00  0.00    +0.000 Cl
ATOM     10  C   UNL     1     -56.005 -46.010 -76.847  0.00  0.00    +0.000 A 
ATOM     11  C   UNL     1     -55.904 -44.541 -76.937  0.00  0.00    +0.000 A 
ATOM     12  O   UNL     1     -54.824 -43.974 -77.041  0.00  0.00    +0.000 OA
ATOM     13  C   UNL     1     -57.178 -43.749 -76.979  0.00  0.00    +0.000 A 
ATOM     14  H   UNL     1     -59.034 -46.119 -78.163  0.00  0.00    +0.000 HD
ENDROOT
BRANCH   1  15
ATOM     15  S   UNL     1     -59.859 -43.674 -77.808  0.00  0.00    +0.000 S 
ATOM     16  O   UNL     1     -60.717 -44.884 -78.058  0.00  0.00    +0.000 OA
BRANCH  15  17
ATOM     17  C   UNL     1     -59.969 -42.615 -79.281  0.00  0.00    +0.000 C 
BRANCH  17  21
ATOM     18  C   UNL     1     -61.412 -37.712 -78.967  0.00  0.00    +0.000 C 
ATOM     19  C   UNL     1     -61.183 -39.157 -79.155  0.00  0.00    +0.000 A 
ATOM     20  C   UNL     1     -60.129 -40.008 -78.919  0.00  0.00    +0.000 A 
ATOM     21  C   UNL     1     -60.627 -41.289 -79.244  0.00  0.00    +0.000 A 
ATOM     22  N   UNL     1     -61.884 -41.201 -79.714  0.00  0.00    +0.000 NA
ATOM     23  O   UNL     1     -62.226 -39.866 -79.654  0.00  0.00    +0.000 OA
ENDBRANCH  17  21
ENDBRANCH  15  17
ENDBRANCH   1  15
BRANCH  13  24
ATOM     24  C   UNL     1     -57.160 -42.538 -76.110  0.00  0.00    +0.000 C 
ATOM     25  O   UNL     1     -57.147 -42.647 -74.896  0.00  0.00    +0.000 OA
BRANCH  24  26
ATOM     26  C   UNL     1     -57.108 -41.208 -76.745  0.00  0.00    +0.000 C 
ATOM     27  C   UNL     1     -56.624 -41.084 -78.167  0.00  0.00    +0.000 C 
ATOM     28  C   UNL     1     -55.791 -40.536 -77.049  0.00  0.00    +0.000 C 
ENDBRANCH  24  26
ENDBRANCH  13  24
TORSDOF 5
ENDMDL
MODEL 9
REMARK VINA RESULT:    -5.964      9.143     13.337
REMARK INTER + INTRA:          -8.598
REMARK INTER:                  -7.425
REMARK INTRA:                  -1.173
REMARK UNBOUND:                -0.891
REMARK  Name = 
REMARK  6 active torsions:
REMARK  status: ('A' for Active; 'I' for Inactive)
REMARK    1  A    between atoms: C_1  and  C_2
REMARK    2  A    between atoms: C_4  and  C_5
REMARK    3  A    between atoms: C_5  and  S_6
REMARK    4  A    between atoms: S_6  and  C_8
REMARK    5  A    between atoms: C_20  and  C_21
REMARK    6  A    between atoms: C_21  and  C_23
REMARK                            x       y       z     vdW  Elec       q    Type
REMARK                         _______ _______ _______ _____ _____    ______ ____
ROOT
ATOM      1  C   UNL     1     -57.630 -40.772 -63.360  0.00  0.00    +0.000 A 
ATOM      2  N   UNL     1     -56.497 -40.298 -64.049  0.00  0.00    +0.000 N 
ATOM      3  C   UNL     1     -55.764 -39.184 -63.557  0.00  0.00    +0.000 A 
ATOM      4  C   UNL     1     -54.441 -38.902 -63.947  0.00  0.00    +0.000 A 
ATOM      5 BR   UNL     1     -53.465 -40.106 -65.040  0.00  0.00    +0.000 Br
ATOM      6  C   UNL     1     -53.793 -37.733 -63.523  0.00  0.00    +0.000 A 
ATOM      7  C   UNL     1     -54.459 -36.842 -62.674  0.00  0.00    +0.000 A 
ATOM      8  C   UNL     1     -55.769 -37.101 -62.272  0.00  0.00    +0.000 A 
ATOM      9 CL   UNL     1     -56.476 -35.978 -61.167  0.00  0.00    +0.000 Cl
ATOM     10  C   UNL     1     -56.419 -38.256 -62.732  0.00  0.00    +0.000 A 
ATOM     11  C   UNL     1     -57.829 -38.571 -62.430  0.00  0.00    +0.000 A 
ATOM     12  O   UNL     1     -58.662 -37.690 -62.251  0.00  0.00    +0.000 OA
ATOM     13  C   UNL     1     -58.243 -40.012 -62.425  0.00  0.00    +0.000 A 
ATOM     14  H   UNL     1     -55.904 -41.064 -64.396  0.00  0.00    +0.000 HD
ENDROOT
BRANCH   1  15
ATOM     15  S   UNL     1     -57.852 -42.562 -63.532  0.00  0.00    +0.000 S 
ATOM     16  O   UNL     1     -56.455 -43.116 -63.457  0.00  0.00    +0.000 OA
BRANCH  15  17
ATOM     17  C   UNL     1     -58.498 -42.937 -65.188  0.00  0.00    +0.000 C 
BRANCH  17  21
ATOM     18  C   UNL     1     -55.821 -43.323 -69.536  0.00  0.00    +0.000 C 
ATOM     19  C   UNL     1     -56.575 -43.001 -68.310  0.00  0.00    +0.000 A 
ATOM     20  C   UNL     1     -57.258 -43.740 -67.373  0.00  0.00    +0.000 A 
ATOM     21  C   UNL     1     -57.663 -42.795 -66.404  0.00  0.00    +0.000 A 
ATOM     22  N   UNL     1     -57.305 -41.554 -66.776  0.00  0.00    +0.000 NA
ATOM     23  O   UNL     1     -56.624 -41.689 -67.968  0.00  0.00    +0.000 OA
ENDBRANCH  17  21
ENDBRANCH  15  17
ENDBRANCH   1  15
BRANCH  13  24
ATOM     24  C   UNL     1     -59.124 -40.379 -61.280  0.00  0.00    +0.000 C 
ATOM     25  O   UNL     1     -60.335 -40.414 -61.416  0.00  0.00    +0.000 OA
BRANCH  24  26
ATOM     26  C   UNL     1     -58.503 -40.745 -59.993  0.00  0.00    +0.000 C 
ATOM     27  C   UNL     1     -57.108 -41.315 -59.979  0.00  0.00    +0.000 C 
ATOM     28  C   UNL     1     -58.270 -42.189 -59.619  0.00  0.00    +0.000 C 
ENDBRANCH  24  26
ENDBRANCH  13  24
TORSDOF 5
ENDMDL
MODEL 10
REMARK VINA RESULT:    -5.856     12.263     13.911
REMARK INTER + INTRA:          -8.458
REMARK INTER:                  -7.468
REMARK INTRA:                  -0.990
REMARK UNBOUND:                -0.891
REMARK  Name = 
REMARK  6 active torsions:
REMARK  status: ('A' for Active; 'I' for Inactive)
REMARK    1  A    between atoms: C_1  and  C_2
REMARK    2  A    between atoms: C_4  and  C_5
REMARK    3  A    between atoms: C_5  and  S_6
REMARK    4  A    between atoms: S_6  and  C_8
REMARK    5  A    between atoms: C_20  and  C_21
REMARK    6  A    between atoms: C_21  and  C_23
REMARK                            x       y       z     vdW  Elec       q    Type
REMARK                         _______ _______ _______ _____ _____    ______ ____
ROOT
ATOM      1  C   UNL     1     -56.781 -38.613 -62.564  0.00  0.00    +0.000 A 
ATOM      2  N   UNL     1     -56.550 -39.938 -62.982  0.00  0.00    +0.000 N 
ATOM      3  C   UNL     1     -55.290 -40.319 -63.518  0.00  0.00    +0.000 A 
ATOM      4  C   UNL     1     -54.857 -41.656 -63.588  0.00  0.00    +0.000 A 
ATOM      5 BR   UNL     1     -55.866 -43.054 -62.796  0.00  0.00    +0.000 Br
ATOM      6  C   UNL     1     -53.655 -41.998 -64.224  0.00  0.00    +0.000 A 
ATOM      7  C   UNL     1     -52.855 -40.992 -64.777  0.00  0.00    +0.000 A 
ATOM      8  C   UNL     1     -53.261 -39.659 -64.718  0.00  0.00    +0.000 A 
ATOM      9 CL   UNL     1     -52.169 -38.488 -65.365  0.00  0.00    +0.000 Cl
ATOM     10  C   UNL     1     -54.484 -39.334 -64.111  0.00  0.00    +0.000 A 
ATOM     11  C   UNL     1     -55.036 -37.966 -64.077  0.00  0.00    +0.000 A 
ATOM     12  O   UNL     1     -54.807 -37.155 -64.966  0.00  0.00    +0.000 OA
ATOM     13  C   UNL     1     -55.963 -37.609 -62.952  0.00  0.00    +0.000 A 
ATOM     14  H   UNL     1     -56.947 -40.627 -62.328  0.00  0.00    +0.000 HD
ENDROOT
BRANCH   1  15
ATOM     15  S   UNL     1     -57.937 -38.512 -61.172  0.00  0.00    +0.000 S 
ATOM     16  O   UNL     1     -57.276 -39.315 -60.085  0.00  0.00    +0.000 OA
BRANCH  15  17
ATOM     17  C   UNL     1     -59.485 -39.358 -61.608  0.00  0.00    +0.000 C 
BRANCH  17  21
ATOM     18  C   UNL     1     -60.706 -44.158 -60.308  0.00  0.00    +0.000 C 
ATOM     19  C   UNL     1     -60.268 -42.861 -60.857  0.00  0.00    +0.000 A 
ATOM     20  C   UNL     1     -60.434 -41.548 -60.486  0.00  0.00    +0.000 A 
ATOM     21  C   UNL     1     -59.662 -40.815 -61.415  0.00  0.00    +0.000 A 
ATOM     22  N   UNL     1     -59.122 -41.638 -62.331  0.00  0.00    +0.000 NA
ATOM     23  O   UNL     1     -59.503 -42.915 -61.977  0.00  0.00    +0.000 OA
ENDBRANCH  17  21
ENDBRANCH  15  17
ENDBRANCH   1  15
BRANCH  13  24
ATOM     24  C   UNL     1     -55.694 -36.270 -62.355  0.00  0.00    +0.000 C 
ATOM     25  O   UNL     1     -54.934 -36.156 -61.409  0.00  0.00    +0.000 OA
BRANCH  24  26
ATOM     26  C   UNL     1     -56.325 -35.082 -62.960  0.00  0.00    +0.000 C 
ATOM     27  C   UNL     1     -56.491 -33.831 -62.136  0.00  0.00    +0.000 C 
ATOM     28  C   UNL     1     -57.699 -34.623 -62.533  0.00  0.00    +0.000 C 
ENDBRANCH  24  26
ENDBRANCH  13  24
TORSDOF 5
ENDMDL
MODEL 11
REMARK VINA RESULT:    -5.853     12.274     14.303
REMARK INTER + INTRA:          -8.455
REMARK INTER:                  -7.774
REMARK INTRA:                  -0.680
REMARK UNBOUND:                -0.891
REMARK  Name = 
REMARK  6 active torsions:
REMARK  status: ('A' for Active; 'I' for Inactive)
REMARK    1  A    between atoms: C_1  and  C_2
REMARK    2  A    between atoms: C_4  and  C_5
REMARK    3  A    between atoms: C_5  and  S_6
REMARK    4  A    between atoms: S_6  and  C_8
REMARK    5  A    between atoms: C_20  and  C_21
REMARK    6  A    between atoms: C_21  and  C_23
REMARK                            x       y       z     vdW  Elec       q    Type
REMARK                         _______ _______ _______ _____ _____    ______ ____
ROOT
ATOM      1  C   UNL     1     -56.961 -38.107 -62.706  0.00  0.00    +0.000 A 
ATOM      2  N   UNL     1     -56.885 -39.446 -63.133  0.00  0.00    +0.000 N 
ATOM      3  C   UNL     1     -55.657 -39.989 -63.600  0.00  0.00    +0.000 A 
ATOM      4  C   UNL     1     -55.404 -41.372 -63.669  0.00  0.00    +0.000 A 
ATOM      5 BR   UNL     1     -56.639 -42.628 -62.964  0.00  0.00    +0.000 Br
ATOM      6  C   UNL     1     -54.223 -41.866 -64.238  0.00  0.00    +0.000 A 
ATOM      7  C   UNL     1     -53.262 -40.972 -64.724  0.00  0.00    +0.000 A 
ATOM      8  C   UNL     1     -53.488 -39.597 -64.665  0.00  0.00    +0.000 A 
ATOM      9 CL   UNL     1     -52.211 -38.578 -65.224  0.00  0.00    +0.000 Cl
ATOM     10  C   UNL     1     -54.691 -39.116 -64.125  0.00  0.00    +0.000 A 
ATOM     11  C   UNL     1     -55.055 -37.686 -64.099  0.00  0.00    +0.000 A 
ATOM     12  O   UNL     1     -54.665 -36.905 -64.958  0.00  0.00    +0.000 OA
ATOM     13  C   UNL     1     -55.993 -37.219 -63.026  0.00  0.00    +0.000 A 
ATOM     14  H   UNL     1     -57.411 -40.082 -62.517  0.00  0.00    +0.000 HD
ENDROOT
BRANCH   1  15
ATOM     15  S   UNL     1     -58.176 -37.865 -61.383  0.00  0.00    +0.000 S 
ATOM     16  O   UNL     1     -57.906 -38.991 -60.423  0.00  0.00    +0.000 OA
BRANCH  15  17
ATOM     17  C   UNL     1     -59.850 -38.106 -62.047  0.00  0.00    +0.000 C 
BRANCH  17  21
ATOM     18  C   UNL     1     -63.420 -34.785 -60.481  0.00  0.00    +0.000 C 
ATOM     19  C   UNL     1     -62.544 -35.889 -60.917  0.00  0.00    +0.000 A 
ATOM     20  C   UNL     1     -61.252 -35.974 -61.378  0.00  0.00    +0.000 A 
ATOM     21  C   UNL     1     -61.016 -37.360 -61.519  0.00  0.00    +0.000 A 
ATOM     22  N   UNL     1     -62.126 -38.059 -61.227  0.00  0.00    +0.000 NA
ATOM     23  O   UNL     1     -63.078 -37.135 -60.850  0.00  0.00    +0.000 OA
ENDBRANCH  17  21
ENDBRANCH  15  17
ENDBRANCH   1  15
BRANCH  13  24
ATOM     24  C   UNL     1     -55.584 -35.935 -62.389  0.00  0.00    +0.000 C 
ATOM     25  O   UNL     1     -54.754 -35.923 -61.496  0.00  0.00    +0.000 OA
BRANCH  24  26
ATOM     26  C   UNL     1     -56.164 -34.675 -62.891  0.00  0.00    +0.000 C 
ATOM     27  C   UNL     1     -56.418 -33.542 -61.931  0.00  0.00    +0.000 C 
ATOM     28  C   UNL     1     -57.576 -34.270 -62.543  0.00  0.00    +0.000 C 
ENDBRANCH  24  26
ENDBRANCH  13  24
TORSDOF 5
ENDMDL
MODEL 12
REMARK VINA RESULT:    -5.840     12.312     14.907
REMARK INTER + INTRA:          -8.439
REMARK INTER:                  -7.539
REMARK INTRA:                  -0.899
REMARK UNBOUND:                -0.891
REMARK  Name = 
REMARK  6 active torsions:
REMARK  status: ('A' for Active; 'I' for Inactive)
REMARK    1  A    between atoms: C_1  and  C_2
REMARK    2  A    between atoms: C_4  and  C_5
REMARK    3  A    between atoms: C_5  and  S_6
REMARK    4  A    between atoms: S_6  and  C_8
REMARK    5  A    between atoms: C_20  and  C_21
REMARK    6  A    between atoms: C_21  and  C_23
REMARK                            x       y       z     vdW  Elec       q    Type
REMARK                         _______ _______ _______ _____ _____    ______ ____
ROOT
ATOM      1  C   UNL     1     -56.593 -41.065 -62.007  0.00  0.00    +0.000 A 
ATOM      2  N   UNL     1     -56.760 -41.537 -60.691  0.00  0.00    +0.000 N 
ATOM      3  C   UNL     1     -55.848 -42.477 -60.138  0.00  0.00    +0.000 A 
ATOM      4  C   UNL     1     -55.713 -42.693 -58.754  0.00  0.00    +0.000 A 
ATOM      5 BR   UNL     1     -56.624 -41.601 -57.499  0.00  0.00    +0.000 Br
ATOM      6  C   UNL     1     -54.882 -43.707 -58.256  0.00  0.00    +0.000 A 
ATOM      7  C   UNL     1     -54.152 -44.503 -59.145  0.00  0.00    +0.000 A 
ATOM      8  C   UNL     1     -54.268 -44.306 -60.522  0.00  0.00    +0.000 A 
ATOM      9 CL   UNL     1     -53.271 -45.291 -61.530  0.00  0.00    +0.000 Cl
ATOM     10  C   UNL     1     -55.130 -43.312 -61.009  0.00  0.00    +0.000 A 
ATOM     11  C   UNL     1     -55.383 -43.088 -62.445  0.00  0.00    +0.000 A 
ATOM     12  O   UNL     1     -55.330 -44.002 -63.259  0.00  0.00    +0.000 OA
ATOM     13  C   UNL     1     -55.791 -41.712 -62.881  0.00  0.00    +0.000 A 
ATOM     14  H   UNL     1     -57.027 -40.786 -60.039  0.00  0.00    +0.000 HD
ENDROOT
BRANCH   1  15
ATOM     15  S   UNL     1     -57.167 -39.358 -62.214  0.00  0.00    +0.000 S 
ATOM     16  O   UNL     1     -56.134 -38.532 -61.497  0.00  0.00    +0.000 OA
BRANCH  15  17
ATOM     17  C   UNL     1     -58.743 -39.138 -61.337  0.00  0.00    +0.000 C 
BRANCH  17  21
ATOM     18  C   UNL     1     -63.551 -39.880 -62.936  0.00  0.00    +0.000 C 
ATOM     19  C   UNL     1     -62.110 -39.797 -62.634  0.00  0.00    +0.000 A 
ATOM     20  C   UNL     1     -61.347 -39.071 -61.749  0.00  0.00    +0.000 A 
ATOM     21  C   UNL     1     -60.034 -39.558 -61.930  0.00  0.00    +0.000 A 
ATOM     22  N   UNL     1     -60.001 -40.472 -62.917  0.00  0.00    +0.000 NA
ATOM     23  O   UNL     1     -61.302 -40.618 -63.352  0.00  0.00    +0.000 OA
ENDBRANCH  17  21
ENDBRANCH  15  17
ENDBRANCH   1  15
BRANCH  13  24
ATOM     24  C   UNL     1     -55.099 -41.245 -64.116  0.00  0.00    +0.000 C 
ATOM     25  O   UNL     1     -55.666 -41.279 -65.195  0.00  0.00    +0.000 OA
BRANCH  24  26
ATOM     26  C   UNL     1     -53.734 -40.698 -64.002  0.00  0.00    +0.000 C 
ATOM     27  C   UNL     1     -52.963 -40.362 -65.253  0.00  0.00    +0.000 C 
ATOM     28  C   UNL     1     -52.527 -41.514 -64.400  0.00  0.00    +0.000 C 
ENDBRANCH  24  26
ENDBRANCH  13  24
TORSDOF 5
ENDMDL
MODEL 13
REMARK VINA RESULT:    -5.723     12.388     14.936
REMARK INTER + INTRA:          -8.287
REMARK INTER:                  -7.640
REMARK INTRA:                  -0.647
REMARK UNBOUND:                -0.891
REMARK  Name = 
REMARK  6 active torsions:
REMARK  status: ('A' for Active; 'I' for Inactive)
REMARK    1  A    between atoms: C_1  and  C_2
REMARK    2  A    between atoms: C_4  and  C_5
REMARK    3  A    between atoms: C_5  and  S_6
REMARK    4  A    between atoms: S_6  and  C_8
REMARK    5  A    between atoms: C_20  and  C_21
REMARK    6  A    between atoms: C_21  and  C_23
REMARK                            x       y       z     vdW  Elec       q    Type
REMARK                         _______ _______ _______ _____ _____    ______ ____
ROOT
ATOM      1  C   UNL     1     -56.630 -40.923 -61.569  0.00  0.00    +0.000 A 
ATOM      2  N   UNL     1     -56.614 -41.658 -60.367  0.00  0.00    +0.000 N 
ATOM      3  C   UNL     1     -55.639 -42.669 -60.150  0.00  0.00    +0.000 A 
ATOM      4  C   UNL     1     -55.313 -43.160 -58.872  0.00  0.00    +0.000 A 
ATOM      5 BR   UNL     1     -56.035 -42.369 -57.306  0.00  0.00    +0.000 Br
ATOM      6  C   UNL     1     -54.426 -44.233 -58.711  0.00  0.00    +0.000 A 
ATOM      7  C   UNL     1     -53.830 -44.813 -59.837  0.00  0.00    +0.000 A 
ATOM      8  C   UNL     1     -54.136 -44.343 -61.114  0.00  0.00    +0.000 A 
ATOM      9 CL   UNL     1     -53.294 -45.077 -62.431  0.00  0.00    +0.000 Cl
ATOM     10  C   UNL     1     -55.053 -43.291 -61.264  0.00  0.00    +0.000 A 
ATOM     11  C   UNL     1     -55.502 -42.785 -62.575  0.00  0.00    +0.000 A 
ATOM     12  O   UNL     1     -55.567 -43.511 -63.559  0.00  0.00    +0.000 OA
ATOM     13  C   UNL     1     -55.960 -41.359 -62.659  0.00  0.00    +0.000 A 
ATOM     14  H   UNL     1     -56.784 -41.063 -59.545  0.00  0.00    +0.000 HD
ENDROOT
BRANCH   1  15
ATOM     15  S   UNL     1     -57.218 -39.225 -61.339  0.00  0.00    +0.000 S 
ATOM     16  O   UNL     1     -58.243 -39.039 -62.425  0.00  0.00    +0.000 OA
BRANCH  15  17
ATOM     17  C   UNL     1     -55.861 -38.063 -61.669  0.00  0.00    +0.000 C 
BRANCH  17  21
ATOM     18  C   UNL     1     -57.059 -33.107 -62.139  0.00  0.00    +0.000 C 
ATOM     19  C   UNL     1     -56.594 -34.506 -62.177  0.00  0.00    +0.000 A 
ATOM     20  C   UNL     1     -56.748 -35.599 -61.357  0.00  0.00    +0.000 A 
ATOM     21  C   UNL     1     -56.112 -36.653 -62.049  0.00  0.00    +0.000 A 
ATOM     22  N   UNL     1     -55.549 -36.202 -63.183  0.00  0.00    +0.000 NA
ATOM     23  O   UNL     1     -55.855 -34.859 -63.259  0.00  0.00    +0.000 OA
ENDBRANCH  17  21
ENDBRANCH  15  17
ENDBRANCH   1  15
BRANCH  13  24
ATOM     24  C   UNL     1     -55.445 -40.633 -63.854  0.00  0.00    +0.000 C 
ATOM     25  O   UNL     1     -56.204 -40.281 -64.740  0.00  0.00    +0.000 OA
BRANCH  24  26
ATOM     26  C   UNL     1     -54.008 -40.307 -63.923  0.00  0.00    +0.000 C 
ATOM     27  C   UNL     1     -53.561 -39.084 -64.682  0.00  0.00    +0.000 C 
ATOM     28  C   UNL     1     -53.234 -40.447 -65.213  0.00  0.00    +0.000 C 
ENDBRANCH  24  26
ENDBRANCH  13  24
TORSDOF 5
ENDMDL
MODEL 14
REMARK VINA RESULT:    -5.550     24.695     26.827
REMARK INTER + INTRA:          -8.064
REMARK INTER:                  -7.394
REMARK INTRA:                  -0.670
REMARK UNBOUND:                -0.891
REMARK  Name = 
REMARK  6 active torsions:
REMARK  status: ('A' for Active; 'I' for Inactive)
REMARK    1  A    between atoms: C_1  and  C_2
REMARK    2  A    between atoms: C_4  and  C_5
REMARK    3  A    between atoms: C_5  and  S_6
REMARK    4  A    between atoms: S_6  and  C_8
REMARK    5  A    between atoms: C_20  and  C_21
REMARK    6  A    between atoms: C_21  and  C_23
REMARK                            x       y       z     vdW  Elec       q    Type
REMARK                         _______ _______ _______ _____ _____    ______ ____
ROOT
ATOM      1  C   UNL     1     -66.072 -50.409 -54.037  0.00  0.00    +0.000 A 
ATOM      2  N   UNL     1     -66.216 -49.722 -55.258  0.00  0.00    +0.000 N 
ATOM      3  C   UNL     1     -67.484 -49.635 -55.894  0.00  0.00    +0.000 A 
ATOM      4  C   UNL     1     -67.788 -48.669 -56.873  0.00  0.00    +0.000 A 
ATOM      5 BR   UNL     1     -66.565 -47.281 -57.291  0.00  0.00    +0.000 Br
ATOM      6  C   UNL     1     -69.013 -48.688 -57.554  0.00  0.00    +0.000 A 
ATOM      7  C   UNL     1     -69.965 -49.664 -57.240  0.00  0.00    +0.000 A 
ATOM      8  C   UNL     1     -69.688 -50.630 -56.272  0.00  0.00    +0.000 A 
ATOM      9 CL   UNL     1     -70.955 -51.745 -55.907  0.00  0.00    +0.000 Cl
ATOM     10  C   UNL     1     -68.444 -50.622 -55.623  0.00  0.00    +0.000 A 
ATOM     11  C   UNL     1     -68.029 -51.651 -54.650  0.00  0.00    +0.000 A 
ATOM     12  O   UNL     1     -68.434 -52.805 -54.719  0.00  0.00    +0.000 OA
ATOM     13  C   UNL     1     -67.023 -51.267 -53.606  0.00  0.00    +0.000 A 
ATOM     14  H   UNL     1     -65.683 -48.841 -55.274  0.00  0.00    +0.000 HD
ENDROOT
BRANCH   1  15
ATOM     15  S   UNL     1     -64.785 -49.692 -52.982  0.00  0.00    +0.000 S 
ATOM     16  O   UNL     1     -64.180 -50.877 -52.281  0.00  0.00    +0.000 OA
BRANCH  15  17
ATOM     17  C   UNL     1     -65.555 -48.645 -51.712  0.00  0.00    +0.000 C 
BRANCH  17  21
ATOM     18  C   UNL     1     -62.419 -44.951 -50.056  0.00  0.00    +0.000 C 
ATOM     19  C   UNL     1     -63.477 -45.869 -50.516  0.00  0.00    +0.000 A 
ATOM     20  C   UNL     1     -63.497 -47.156 -51.001  0.00  0.00    +0.000 A 
ATOM     21  C   UNL     1     -64.869 -47.455 -51.158  0.00  0.00    +0.000 A 
ATOM     22  N   UNL     1     -65.623 -46.384 -50.852  0.00  0.00    +0.000 NA
ATOM     23  O   UNL     1     -64.748 -45.397 -50.450  0.00  0.00    +0.000 OA
ENDBRANCH  17  21
ENDBRANCH  15  17
ENDBRANCH   1  15
BRANCH  13  24
ATOM     24  C   UNL     1     -67.355 -51.766 -52.241  0.00  0.00    +0.000 C 
ATOM     25  O   UNL     1     -68.270 -51.270 -51.606  0.00  0.00    +0.000 OA
BRANCH  24  26
ATOM     26  C   UNL     1     -66.589 -52.901 -51.693  0.00  0.00    +0.000 C 
ATOM     27  C   UNL     1     -65.849 -53.818 -52.632  0.00  0.00    +0.000 C 
ATOM     28  C   UNL     1     -67.049 -54.326 -51.893  0.00  0.00    +0.000 C 
ENDBRANCH  24  26
ENDBRANCH  13  24
TORSDOF 5
ENDMDL
MODEL 15
REMARK VINA RESULT:    -5.380      4.661      6.770
REMARK INTER + INTRA:          -7.844
REMARK INTER:                  -6.718
REMARK INTRA:                  -1.126
REMARK UNBOUND:                -0.891
REMARK  Name = 
REMARK  6 active torsions:
REMARK  status: ('A' for Active; 'I' for Inactive)
REMARK    1  A    between atoms: C_1  and  C_2
REMARK    2  A    between atoms: C_4  and  C_5
REMARK    3  A    between atoms: C_5  and  S_6
REMARK    4  A    between atoms: S_6  and  C_8
REMARK    5  A    between atoms: C_20  and  C_21
REMARK    6  A    between atoms: C_21  and  C_23
REMARK                            x       y       z     vdW  Elec       q    Type
REMARK                         _______ _______ _______ _____ _____    ______ ____
ROOT
ATOM      1  C   UNL     1     -58.712 -44.860 -77.896  0.00  0.00    +0.000 A 
ATOM      2  N   UNL     1     -58.602 -46.232 -78.196  0.00  0.00    +0.000 N 
ATOM      3  C   UNL     1     -57.585 -47.025 -77.597  0.00  0.00    +0.000 A 
ATOM      4  C   UNL     1     -57.644 -48.429 -77.534  0.00  0.00    +0.000 A 
ATOM      5 BR   UNL     1     -59.193 -49.371 -78.093  0.00  0.00    +0.000 Br
ATOM      6  C   UNL     1     -56.569 -49.178 -77.034  0.00  0.00    +0.000 A 
ATOM      7  C   UNL     1     -55.427 -48.521 -76.563  0.00  0.00    +0.000 A 
ATOM      8  C   UNL     1     -55.347 -47.129 -76.614  0.00  0.00    +0.000 A 
ATOM      9 CL   UNL     1     -53.927 -46.412 -75.942  0.00  0.00    +0.000 Cl
ATOM     10  C   UNL     1     -56.414 -46.393 -77.150  0.00  0.00    +0.000 A 
ATOM     11  C   UNL     1     -56.385 -44.928 -77.323  0.00  0.00    +0.000 A 
ATOM     12  O   UNL     1     -55.340 -44.324 -77.534  0.00  0.00    +0.000 OA
ATOM     13  C   UNL     1     -57.692 -44.192 -77.314  0.00  0.00    +0.000 A 
ATOM     14  H   UNL     1     -59.520 -46.696 -78.236  0.00  0.00    +0.000 HD
ENDROOT
BRANCH   1  15
ATOM     15  S   UNL     1     -60.425 -44.271 -77.950  0.00  0.00    +0.000 S 
ATOM     16  O   UNL     1     -61.248 -45.504 -77.700  0.00  0.00    +0.000 OA
BRANCH  15  17
ATOM     17  C   UNL     1     -60.813 -43.689 -79.627  0.00  0.00    +0.000 C 
BRANCH  17  21
ATOM     18  C   UNL     1     -57.262 -41.171 -82.324  0.00  0.00    +0.000 C 
ATOM     19  C   UNL     1     -58.405 -41.722 -81.572  0.00  0.00    +0.000 A 
ATOM     20  C   UNL     1     -58.692 -42.941 -81.004  0.00  0.00    +0.000 A 
ATOM     21  C   UNL     1     -59.930 -42.747 -80.353  0.00  0.00    +0.000 A 
ATOM     22  N   UNL     1     -60.392 -41.505 -80.579  0.00  0.00    +0.000 NA
ATOM     23  O   UNL     1     -59.434 -40.868 -81.340  0.00  0.00    +0.000 OA
ENDBRANCH  17  21
ENDBRANCH  15  17
ENDBRANCH   1  15
BRANCH  13  24
ATOM     24  C   UNL     1     -57.667 -42.935 -76.512  0.00  0.00    +0.000 C 
ATOM     25  O   UNL     1     -57.709 -42.976 -75.295  0.00  0.00    +0.000 OA
BRANCH  24  26
ATOM     26  C   UNL     1     -57.542 -41.645 -77.217  0.00  0.00    +0.000 C 
ATOM     27  C   UNL     1     -57.613 -40.362 -76.430  0.00  0.00    +0.000 C 
ATOM     28  C   UNL     1     -58.725 -40.719 -77.369  0.00  0.00    +0.000 C 
ENDBRANCH  24  26
ENDBRANCH  13  24
TORSDOF 5
ENDMDL
MODEL 16
REMARK VINA RESULT:    -5.349     24.712     27.426
REMARK INTER + INTRA:          -7.803
REMARK INTER:                  -6.878
REMARK INTRA:                  -0.926
REMARK UNBOUND:                -0.891
REMARK  Name = 
REMARK  6 active torsions:
REMARK  status: ('A' for Active; 'I' for Inactive)
REMARK    1  A    between atoms: C_1  and  C_2
REMARK    2  A    between atoms: C_4  and  C_5
REMARK    3  A    between atoms: C_5  and  S_6
REMARK    4  A    between atoms: S_6  and  C_8
REMARK    5  A    between atoms: C_20  and  C_21
REMARK    6  A    between atoms: C_21  and  C_23
REMARK                            x       y       z     vdW  Elec       q    Type
REMARK                         _______ _______ _______ _____ _____    ______ ____
ROOT
ATOM      1  C   UNL     1     -68.651 -50.765 -52.392  0.00  0.00    +0.000 A 
ATOM      2  N   UNL     1     -68.930 -49.813 -53.392  0.00  0.00    +0.000 N 
ATOM      3  C   UNL     1     -67.881 -49.251 -54.169  0.00  0.00    +0.000 A 
ATOM      4  C   UNL     1     -68.097 -48.617 -55.407  0.00  0.00    +0.000 A 
ATOM      5 BR   UNL     1     -69.808 -48.625 -56.226  0.00  0.00    +0.000 Br
ATOM      6  C   UNL     1     -67.050 -47.980 -56.088  0.00  0.00    +0.000 A 
ATOM      7  C   UNL     1     -65.760 -47.994 -55.544  0.00  0.00    +0.000 A 
ATOM      8  C   UNL     1     -65.521 -48.618 -54.319  0.00  0.00    +0.000 A 
ATOM      9 CL   UNL     1     -63.884 -48.643 -53.771  0.00  0.00    +0.000 Cl
ATOM     10  C   UNL     1     -66.584 -49.221 -53.631  0.00  0.00    +0.000 A 
ATOM     11  C   UNL     1     -66.446 -49.828 -52.293  0.00  0.00    +0.000 A 
ATOM     12  O   UNL     1     -65.628 -49.416 -51.480  0.00  0.00    +0.000 OA
ATOM     13  C   UNL     1     -67.396 -50.926 -51.917  0.00  0.00    +0.000 A 
ATOM     14  H   UNL     1     -69.766 -50.058 -53.940  0.00  0.00    +0.000 HD
ENDROOT
BRANCH   1  15
ATOM     15  S   UNL     1     -69.988 -51.970 -52.184  0.00  0.00    +0.000 S 
ATOM     16  O   UNL     1     -69.671 -52.653 -50.882  0.00  0.00    +0.000 OA
BRANCH  15  17
ATOM     17  C   UNL     1     -69.883 -53.224 -53.496  0.00  0.00    +0.000 C 
BRANCH  17  21
ATOM     18  C   UNL     1     -71.242 -52.076 -58.297  0.00  0.00    +0.000 C 
ATOM     19  C   UNL     1     -70.660 -52.326 -56.965  0.00  0.00    +0.000 A 
ATOM     20  C   UNL     1     -71.150 -52.791 -55.768  0.00  0.00    +0.000 A 
ATOM     21  C   UNL     1     -70.017 -52.871 -54.928  0.00  0.00    +0.000 A 
ATOM     22  N   UNL     1     -68.925 -52.414 -55.565  0.00  0.00    +0.000 NA
ATOM     23  O   UNL     1     -69.332 -52.076 -56.838  0.00  0.00    +0.000 OA
ENDBRANCH  17  21
ENDBRANCH  15  17
ENDBRANCH   1  15
BRANCH  13  24
ATOM     24  C   UNL     1     -66.741 -52.078 -51.234  0.00  0.00    +0.000 C 
ATOM     25  O   UNL     1     -67.040 -52.372 -50.090  0.00  0.00    +0.000 OA
BRANCH  24  26
ATOM     26  C   UNL     1     -65.760 -52.885 -51.985  0.00  0.00    +0.000 C 
ATOM     27  C   UNL     1     -65.968 -53.122 -53.458  0.00  0.00    +0.000 C 
ATOM     28  C   UNL     1     -66.108 -54.263 -52.497  0.00  0.00    +0.000 C 
ENDBRANCH  24  26
ENDBRANCH  13  24
TORSDOF 5
ENDMDL
MODEL 17
REMARK VINA RESULT:    -5.290     22.170     25.953
REMARK INTER + INTRA:          -7.727
REMARK INTER:                  -6.911
REMARK INTRA:                  -0.816
REMARK UNBOUND:                -0.891
REMARK  Name = 
REMARK  6 active torsions:
REMARK  status: ('A' for Active; 'I' for Inactive)
REMARK    1  A    between atoms: C_1  and  C_2
REMARK    2  A    between atoms: C_4  and  C_5
REMARK    3  A    between atoms: C_5  and  S_6
REMARK    4  A    between atoms: S_6  and  C_8
REMARK    5  A    between atoms: C_20  and  C_21
REMARK    6  A    between atoms: C_21  and  C_23
REMARK                            x       y       z     vdW  Elec       q    Type
REMARK                         _______ _______ _______ _____ _____    ______ ____
ROOT
ATOM      1  C   UNL     1     -66.027 -49.509 -54.404  0.00  0.00    +0.000 A 
ATOM      2  N   UNL     1     -66.781 -50.515 -55.040  0.00  0.00    +0.000 N 
ATOM      3  C   UNL     1     -67.388 -51.553 -54.281  0.00  0.00    +0.000 A 
ATOM      4  C   UNL     1     -68.446 -52.342 -54.768  0.00  0.00    +0.000 A 
ATOM      5 BR   UNL     1     -69.272 -51.954 -56.431  0.00  0.00    +0.000 Br
ATOM      6  C   UNL     1     -68.942 -53.426 -54.031  0.00  0.00    +0.000 A 
ATOM      7  C   UNL     1     -68.396 -53.717 -52.775  0.00  0.00    +0.000 A 
ATOM      8  C   UNL     1     -67.348 -52.947 -52.270  0.00  0.00    +0.000 A 
ATOM      9 CL   UNL     1     -66.794 -53.342 -50.683  0.00  0.00    +0.000 Cl
ATOM     10  C   UNL     1     -66.837 -51.887 -53.034  0.00  0.00    +0.000 A 
ATOM     11  C   UNL     1     -65.676 -51.074 -52.621  0.00  0.00    +0.000 A 
ATOM     12  O   UNL     1     -64.776 -51.538 -51.933  0.00  0.00    +0.000 OA
ATOM     13  C   UNL     1     -65.583 -49.669 -53.138  0.00  0.00    +0.000 A 
ATOM     14  H   UNL     1     -67.385 -50.138 -55.783  0.00  0.00    +0.000 HD
ENDROOT
BRANCH   1  15
ATOM     15  S   UNL     1     -66.130 -47.915 -55.260  0.00  0.00    +0.000 S 
ATOM     16  O   UNL     1     -67.079 -48.169 -56.400  0.00  0.00    +0.000 OA
BRANCH  15  17
ATOM     17  C   UNL     1     -64.512 -47.509 -55.981  0.00  0.00    +0.000 C 
BRANCH  17  21
ATOM     18  C   UNL     1     -62.683 -43.168 -57.989  0.00  0.00    +0.000 C 
ATOM     19  C   UNL     1     -63.384 -44.305 -57.364  0.00  0.00    +0.000 A 
ATOM     20  C   UNL     1     -63.114 -45.645 -57.217  0.00  0.00    +0.000 A 
ATOM     21  C   UNL     1     -64.176 -46.137 -56.426  0.00  0.00    +0.000 A 
ATOM     22  N   UNL     1     -65.067 -45.162 -56.174  0.00  0.00    +0.000 NA
ATOM     23  O   UNL     1     -64.566 -44.019 -56.762  0.00  0.00    +0.000 OA
ENDBRANCH  17  21
ENDBRANCH  15  17
ENDBRANCH   1  15
BRANCH  13  24
ATOM     24  C   UNL     1     -65.179 -48.676 -52.102  0.00  0.00    +0.000 C 
ATOM     25  O   UNL     1     -65.926 -48.405 -51.178  0.00  0.00    +0.000 OA
BRANCH  24  26
ATOM     26  C   UNL     1     -63.840 -48.062 -52.189  0.00  0.00    +0.000 C 
ATOM     27  C   UNL     1     -63.408 -47.075 -51.136  0.00  0.00    +0.000 C 
ATOM     28  C   UNL     1     -63.669 -46.602 -52.533  0.00  0.00    +0.000 C 
ENDBRANCH  24  26
ENDBRANCH  13  24
TORSDOF 5
ENDMDL
MODEL 18
REMARK VINA RESULT:    -5.250     14.378     17.351
REMARK INTER + INTRA:          -7.676
REMARK INTER:                  -6.667
REMARK INTRA:                  -1.009
REMARK UNBOUND:                -0.891
REMARK  Name = 
REMARK  6 active torsions:
REMARK  status: ('A' for Active; 'I' for Inactive)
REMARK    1  A    between atoms: C_1  and  C_2
REMARK    2  A    between atoms: C_4  and  C_5
REMARK    3  A    between atoms: C_5  and  S_6
REMARK    4  A    between atoms: S_6  and  C_8
REMARK    5  A    between atoms: C_20  and  C_21
REMARK    6  A    between atoms: C_21  and  C_23
REMARK                            x       y       z     vdW  Elec       q    Type
REMARK                         _______ _______ _______ _____ _____    ______ ____
ROOT
ATOM      1  C   UNL     1     -54.394 -34.526 -60.899  0.00  0.00    +0.000 A 
ATOM      2  N   UNL     1     -54.609 -33.142 -60.751  0.00  0.00    +0.000 N 
ATOM      3  C   UNL     1     -55.887 -32.575 -61.011  0.00  0.00    +0.000 A 
ATOM      4  C   UNL     1     -56.282 -31.315 -60.526  0.00  0.00    +0.000 A 
ATOM      5 BR   UNL     1     -55.185 -30.342 -59.321  0.00  0.00    +0.000 Br
ATOM      6  C   UNL     1     -57.508 -30.746 -60.897  0.00  0.00    +0.000 A 
ATOM      7  C   UNL     1     -58.371 -31.452 -61.743  0.00  0.00    +0.000 A 
ATOM      8  C   UNL     1     -58.002 -32.704 -62.235  0.00  0.00    +0.000 A 
ATOM      9 CL   UNL     1     -59.166 -33.524 -63.213  0.00  0.00    +0.000 Cl
ATOM     10  C   UNL     1     -56.756 -33.247 -61.885  0.00  0.00    +0.000 A 
ATOM     11  C   UNL     1     -56.245 -34.522 -62.423  0.00  0.00    +0.000 A 
ATOM     12  O   UNL     1     -56.552 -34.920 -63.540  0.00  0.00    +0.000 OA
ATOM     13  C   UNL     1     -55.264 -35.294 -61.591  0.00  0.00    +0.000 A 
ATOM     14  H   UNL     1     -54.152 -32.765 -59.909  0.00  0.00    +0.000 HD
ENDROOT
BRANCH   1  15
ATOM     15  S   UNL     1     -53.161 -35.168 -59.736  0.00  0.00    +0.000 S 
ATOM     16  O   UNL     1     -53.930 -35.375 -58.460  0.00  0.00    +0.000 OA
BRANCH  15  17
ATOM     17  C   UNL     1     -51.908 -33.892 -59.415  0.00  0.00    +0.000 C 
BRANCH  17  21
ATOM     18  C   UNL     1     -48.890 -32.938 -63.440  0.00  0.00    +0.000 C 
ATOM     19  C   UNL     1     -49.610 -33.114 -62.165  0.00  0.00    +0.000 A 
ATOM     20  C   UNL     1     -50.841 -33.612 -61.811  0.00  0.00    +0.000 A 
ATOM     21  C   UNL     1     -50.849 -33.570 -60.399  0.00  0.00    +0.000 A 
ATOM     22  N   UNL     1     -49.716 -33.012 -59.938  0.00  0.00    +0.000 NA
ATOM     23  O   UNL     1     -48.944 -32.731 -61.046  0.00  0.00    +0.000 OA
ENDBRANCH  17  21
ENDBRANCH  15  17
ENDBRANCH   1  15
BRANCH  13  24
ATOM     24  C   UNL     1     -55.538 -36.758 -61.546  0.00  0.00    +0.000 C 
ATOM     25  O   UNL     1     -56.508 -37.189 -60.946  0.00  0.00    +0.000 OA
BRANCH  24  26
ATOM     26  C   UNL     1     -54.643 -37.672 -62.281  0.00  0.00    +0.000 C 
ATOM     27  C   UNL     1     -53.991 -37.205 -63.557  0.00  0.00    +0.000 C 
ATOM     28  C   UNL     1     -55.049 -38.266 -63.609  0.00  0.00    +0.000 C 
ENDBRANCH  24  26
ENDBRANCH  13  24
TORSDOF 5
ENDMDL
MODEL 19
REMARK VINA RESULT:    -5.124     13.816     15.568
REMARK INTER + INTRA:          -7.513
REMARK INTER:                  -6.418
REMARK INTRA:                  -1.095
REMARK UNBOUND:                -0.891
REMARK  Name = 
REMARK  6 active torsions:
REMARK  status: ('A' for Active; 'I' for Inactive)
REMARK    1  A    between atoms: C_1  and  C_2
REMARK    2  A    between atoms: C_4  and  C_5
REMARK    3  A    between atoms: C_5  and  S_6
REMARK    4  A    between atoms: S_6  and  C_8
REMARK    5  A    between atoms: C_20  and  C_21
REMARK    6  A    between atoms: C_21  and  C_23
REMARK                            x       y       z     vdW  Elec       q    Type
REMARK                         _______ _______ _______ _____ _____    ______ ____
ROOT
ATOM      1  C   UNL     1     -58.173 -39.261 -62.437  0.00  0.00    +0.000 A 
ATOM      2  N   UNL     1     -58.605 -37.926 -62.311  0.00  0.00    +0.000 N 
ATOM      3  C   UNL     1     -59.904 -37.630 -61.816  0.00  0.00    +0.000 A 
ATOM      4  C   UNL     1     -60.261 -36.369 -61.302  0.00  0.00    +0.000 A 
ATOM      5 BR   UNL     1     -58.963 -35.006 -61.064  0.00  0.00    +0.000 Br
ATOM      6  C   UNL     1     -61.581 -36.086 -60.927  0.00  0.00    +0.000 A 
ATOM      7  C   UNL     1     -62.561 -37.079 -61.037  0.00  0.00    +0.000 A 
ATOM      8  C   UNL     1     -62.231 -38.337 -61.542  0.00  0.00    +0.000 A 
ATOM      9 CL   UNL     1     -63.494 -39.514 -61.571  0.00  0.00    +0.000 Cl
ATOM     10  C   UNL     1     -60.913 -38.597 -61.948  0.00  0.00    +0.000 A 
ATOM     11  C   UNL     1     -60.490 -39.865 -62.572  0.00  0.00    +0.000 A 
ATOM     12  O   UNL     1     -61.255 -40.535 -63.254  0.00  0.00    +0.000 OA
ATOM     13  C   UNL     1     -59.057 -40.283 -62.415  0.00  0.00    +0.000 A 
ATOM     14  H   UNL     1     -57.868 -37.313 -61.936  0.00  0.00    +0.000 HD
ENDROOT
BRANCH   1  15
ATOM     15  S   UNL     1     -56.390 -39.444 -62.174  0.00  0.00    +0.000 S 
ATOM     16  O   UNL     1     -56.164 -38.912 -60.785  0.00  0.00    +0.000 OA
BRANCH  15  17
ATOM     17  C   UNL     1     -55.493 -38.360 -63.323  0.00  0.00    +0.000 C 
BRANCH  17  21
ATOM     18  C   UNL     1     -53.644 -33.770 -62.006  0.00  0.00    +0.000 C 
ATOM     19  C   UNL     1     -54.337 -34.984 -62.476  0.00  0.00    +0.000 A 
ATOM     20  C   UNL     1     -54.044 -36.328 -62.470  0.00  0.00    +0.000 A 
ATOM     21  C   UNL     1     -55.200 -36.945 -62.997  0.00  0.00    +0.000 A 
ATOM     22  N   UNL     1     -56.104 -36.019 -63.363  0.00  0.00    +0.000 NA
ATOM     23  O   UNL     1     -55.559 -34.795 -63.034  0.00  0.00    +0.000 OA
ENDBRANCH  17  21
ENDBRANCH  15  17
ENDBRANCH   1  15
BRANCH  13  24
ATOM     24  C   UNL     1     -58.887 -41.728 -62.091  0.00  0.00    +0.000 C 
ATOM     25  O   UNL     1     -59.196 -42.157 -60.993  0.00  0.00    +0.000 OA
BRANCH  24  26
ATOM     26  C   UNL     1     -58.382 -42.636 -63.137  0.00  0.00    +0.000 C 
ATOM     27  C   UNL     1     -58.118 -44.081 -62.800  0.00  0.00    +0.000 C 
ATOM     28  C   UNL     1     -56.968 -43.167 -63.098  0.00  0.00    +0.000 C 
ENDBRANCH  24  26
ENDBRANCH  13  24
TORSDOF 5
ENDMDL
MODEL 20
REMARK VINA RESULT:    -4.861     18.968     21.056
REMARK INTER + INTRA:          -7.173
REMARK INTER:                  -6.326
REMARK INTRA:                  -0.846
REMARK UNBOUND:                -0.891
REMARK  Name = 
REMARK  6 active torsions:
REMARK  status: ('A' for Active; 'I' for Inactive)
REMARK    1  A    between atoms: C_1  and  C_2
REMARK    2  A    between atoms: C_4  and  C_5
REMARK    3  A    between atoms: C_5  and  S_6
REMARK    4  A    between atoms: S_6  and  C_8
REMARK    5  A    between atoms: C_20  and  C_21
REMARK    6  A    between atoms: C_21  and  C_23
REMARK                            x       y       z     vdW  Elec       q    Type
REMARK                         _______ _______ _______ _____ _____    ______ ____
ROOT
ATOM      1  C   UNL     1     -43.303 -25.514 -69.994  0.00  0.00    +0.000 A 
ATOM      2  N   UNL     1     -42.215 -24.645 -70.206  0.00  0.00    +0.000 N 
ATOM      3  C   UNL     1     -41.407 -24.767 -71.370  0.00  0.00    +0.000 A 
ATOM      4  C   UNL     1     -40.578 -23.732 -71.842  0.00  0.00    +0.000 A 
ATOM      5 BR   UNL     1     -40.614 -22.010 -71.047  0.00  0.00    +0.000 Br
ATOM      6  C   UNL     1     -39.716 -23.932 -72.929  0.00  0.00    +0.000 A 
ATOM      7  C   UNL     1     -39.696 -25.173 -73.577  0.00  0.00    +0.000 A 
ATOM      8  C   UNL     1     -40.510 -26.213 -73.129  0.00  0.00    +0.000 A 
ATOM      9 CL   UNL     1     -40.464 -27.679 -74.040  0.00  0.00    +0.000 Cl
ATOM     10  C   UNL     1     -41.342 -26.011 -72.017  0.00  0.00    +0.000 A 
ATOM     11  C   UNL     1     -42.173 -27.075 -71.420  0.00  0.00    +0.000 A 
ATOM     12  O   UNL     1     -41.837 -28.252 -71.457  0.00  0.00    +0.000 OA
ATOM     13  C   UNL     1     -43.416 -26.668 -70.687  0.00  0.00    +0.000 A 
ATOM     14  H   UNL     1     -42.440 -23.671 -69.958  0.00  0.00    +0.000 HD
ENDROOT
BRANCH   1  15
ATOM     15  S   UNL     1     -44.661 -24.721 -69.093  0.00  0.00    +0.000 S 
ATOM     16  O   UNL     1     -44.254 -23.276 -69.007  0.00  0.00    +0.000 OA
BRANCH  15  17
ATOM     17  C   UNL     1     -44.724 -25.370 -67.397  0.00  0.00    +0.000 C 
BRANCH  17  21
ATOM     18  C   UNL     1     -48.788 -23.597 -64.836  0.00  0.00    +0.000 C 
ATOM     19  C   UNL     1     -47.616 -24.266 -65.431  0.00  0.00    +0.000 A 
ATOM     20  C   UNL     1     -46.851 -24.058 -66.554  0.00  0.00    +0.000 A 
ATOM     21  C   UNL     1     -45.821 -25.021 -66.465  0.00  0.00    +0.000 A 
ATOM     22  N   UNL     1     -46.001 -25.805 -65.388  0.00  0.00    +0.000 NA
ATOM     23  O   UNL     1     -47.123 -25.328 -64.745  0.00  0.00    +0.000 OA
ENDBRANCH  17  21
ENDBRANCH  15  17
ENDBRANCH   1  15
BRANCH  13  24
ATOM     24  C   UNL     1     -44.600 -27.519 -70.997  0.00  0.00    +0.000 C 
ATOM     25  O   UNL     1     -45.059 -27.554 -72.126  0.00  0.00    +0.000 OA
BRANCH  24  26
ATOM     26  C   UNL     1     -45.176 -28.354 -69.926  0.00  0.00    +0.000 C 
ATOM     27  C   UNL     1     -44.258 -29.042 -68.949  0.00  0.00    +0.000 C 
ATOM     28  C   UNL     1     -45.031 -29.857 -69.941  0.00  0.00    +0.000 C 
ENDBRANCH  24  26
ENDBRANCH  13  24
TORSDOF 5
ENDMDL
