REMARK VINA RESULT:    -6.515      3.914      7.396
REMARK INTER + INTRA:          -9.362
REMARK INTER:                  -8.668
REMARK INTRA:                  -0.695
REMARK UNBOUND:                -0.943
REMARK  Name = 
REMARK  6 active torsions:
REMARK  status: ('A' for Active; 'I' for Inactive)
REMARK    1  A    between atoms: C_1  and  C_2
REMARK    2  A    between atoms: C_4  and  C_5
REMARK    3  A    between atoms: C_5  and  S_6
REMARK    4  A    between atoms: S_6  and  C_8
REMARK    5  A    between atoms: C_20  and  C_21
REMARK    6  A    between atoms: C_21  and  C_23
REMARK                            x       y       z     vdW  Elec       q    Type
REMARK                         _______ _______ _______ _____ _____    ______ ____
ROOT
ATOM      1  C   UNL     1     -55.408 -42.465 -77.696  0.00  0.00    +0.000 A 
ATOM      2  N   UNL     1     -56.720 -42.910 -77.446  0.00  0.00    +0.000 N 
ATOM      3  C   UNL     1     -57.357 -42.625 -76.207  0.00  0.00    +0.000 A 
ATOM      4  C   UNL     1     -58.752 -42.683 -76.030  0.00  0.00    +0.000 A 
ATOM      5 BR   UNL     1     -59.915 -42.977 -77.500  0.00  0.00    +0.000 Br
ATOM      6  C   UNL     1     -59.331 -42.502 -74.766  0.00  0.00    +0.000 A 
ATOM      7  C   UNL     1     -58.513 -42.232 -73.662  0.00  0.00    +0.000 A 
ATOM      8  C   UNL     1     -57.128 -42.168 -73.814  0.00  0.00    +0.000 A 
ATOM      9 CL   UNL     1     -56.214 -41.757 -72.407  0.00  0.00    +0.000 Cl
ATOM     10  C   UNL     1     -56.559 -42.386 -75.078  0.00  0.00    +0.000 A 
ATOM     11  C   UNL     1     -55.103 -42.423 -75.318  0.00  0.00    +0.000 A 
ATOM     12  O   UNL     1     -54.317 -42.798 -74.458  0.00  0.00    +0.000 OA
ATOM     13  C   UNL     1     -54.607 -42.059 -76.686  0.00  0.00    +0.000 A 
ATOM     14  H   UNL     1     -57.334 -42.793 -78.264  0.00  0.00    +0.000 HD
ENDROOT
BRANCH   1  15
ATOM     15  S   UNL     1     -55.121 -42.089 -79.445  0.00  0.00    +0.000 S 
ATOM     16  O   UNL     1     -56.307 -42.689 -80.151  0.00  0.00    +0.000 OA
BRANCH  15  17
ATOM     17  C   UNL     1     -53.641 -42.972 -80.021  0.00  0.00    +0.000 C 
BRANCH  17  21
ATOM     18  C   UNL     1     -50.276 -41.867 -83.719  0.00  0.00    +0.000 C 
ATOM     19  C   UNL     1     -51.394 -42.119 -82.791  0.00  0.00    +0.000 A 
ATOM     20  C   UNL     1     -51.506 -42.682 -81.541  0.00  0.00    +0.000 A 
ATOM     21  C   UNL     1     -52.866 -42.515 -81.198  0.00  0.00    +0.000 A 
ATOM     22  N   UNL     1     -53.543 -41.950 -82.213  0.00  0.00    +0.000 NA
ATOM     23  O   UNL     1     -52.618 -41.703 -83.205  0.00  0.00    +0.000 OA
ENDBRANCH  17  21
ENDBRANCH  15  17
ENDBRANCH   1  15
BRANCH  13  24
ATOM     24  C   UNL     1     -53.412 -41.168 -76.673  0.00  0.00    +0.000 C 
ATOM     25  O   UNL     1     -53.543 -39.956 -76.683  0.00  0.00    +0.000 OA
BRANCH  24  26
ATOM     26  C   UNL     1     -52.071 -41.777 -76.599  0.00  0.00    +0.000 C 
ATOM     27  C   UNL     1     -50.877 -40.908 -76.298  0.00  0.00    +0.000 C 
ATOM     28  C   UNL     1     -51.030 -41.512 -77.661  0.00  0.00    +0.000 C 
ENDBRANCH  24  26
ENDBRANCH  13  24
TORSDOF 5
