REMARK VINA RESULT:    -5.472      3.951      5.024
REMARK INTER + INTRA:          -7.864
REMARK INTER:                  -6.854
REMARK INTRA:                  -1.010
REMARK UNBOUND:                -0.794
REMARK  Name = 
REMARK  8 active torsions:
REMARK  status: ('A' for Active; 'I' for Inactive)
REMARK    1  A    between atoms: C_1  and  C_2
REMARK    2  A    between atoms: C_4  and  C_5
REMARK    3  A    between atoms: C_5  and  S_6
REMARK    4  A    between atoms: S_6  and  C_8
REMARK    5  A    between atoms: C_20  and  C_21
REMARK    6  A    between atoms: C_21  and  C_23
REMARK    7  A    between atoms: C_23  and  C_24
REMARK    8  A    between atoms: C_23  and  C_25
REMARK                            x       y       z     vdW  Elec       q    Type
REMARK                         _______ _______ _______ _____ _____    ______ ____
ROOT
ATOM      1  C   UNL     1     -57.620 -43.557 -77.155  0.00  0.00    +0.000 A 
ATOM      2  N   UNL     1     -56.655 -44.260 -76.440  0.00  0.00    +0.000 N 
ATOM      3  C   UNL     1     -56.325 -45.592 -76.757  0.00  0.00    +0.000 A 
ATOM      4  C   UNL     1     -55.110 -46.179 -76.358  0.00  0.00    +0.000 A 
ATOM      5 BR   UNL     1     -53.765 -45.150 -75.503  0.00  0.00    +0.000 Br
ATOM      6  C   UNL     1     -54.842 -47.526 -76.617  0.00  0.00    +0.000 A 
ATOM      7  C   UNL     1     -55.783 -48.305 -77.284  0.00  0.00    +0.000 A 
ATOM      8  C   UNL     1     -57.001 -47.736 -77.699  0.00  0.00    +0.000 A 
ATOM      9 CL   UNL     1     -58.057 -48.781 -78.579  0.00  0.00    +0.000 Cl
ATOM     10  C   UNL     1     -57.274 -46.379 -77.430  0.00  0.00    +0.000 A 
ATOM     11  C   UNL     1     -58.541 -45.694 -77.796  0.00  0.00    +0.000 A 
ATOM     12  O   UNL     1     -59.568 -46.346 -77.958  0.00  0.00    +0.000 OA
ATOM     13  C   UNL     1     -58.533 -44.175 -77.941  0.00  0.00    +0.000 A 
ATOM     14  H   UNL     1     -55.882 -43.674 -76.095  0.00  0.00    +0.000 HD
ENDROOT
BRANCH   1  15
ATOM     15  S   UNL     1     -57.343 -41.748 -77.058  0.00  0.00    +0.000 S 
ATOM     16  O   UNL     1     -55.922 -41.627 -76.578  0.00  0.00    +0.000 OA
BRANCH  15  17
ATOM     17  C   UNL     1     -58.455 -41.226 -75.708  0.00  0.00    +0.000 C 
BRANCH  17  21
ATOM     18  C   UNL     1     -56.217 -42.094 -71.121  0.00  0.00    +0.000 C 
ATOM     19  C   UNL     1     -56.858 -41.646 -72.377  0.00  0.00    +0.000 A 
ATOM     20  C   UNL     1     -57.199 -42.250 -73.566  0.00  0.00    +0.000 A 
ATOM     21  C   UNL     1     -57.821 -41.225 -74.337  0.00  0.00    +0.000 A 
ATOM     22  N   UNL     1     -57.826 -40.074 -73.644  0.00  0.00    +0.000 NA
ATOM     23  O   UNL     1     -57.230 -40.341 -72.426  0.00  0.00    +0.000 OA
ENDBRANCH  17  21
ENDBRANCH  15  17
ENDBRANCH   1  15
BRANCH  13  24
ATOM     24  C   UNL     1     -59.494 -43.584 -78.948  0.00  0.00    +0.000 C 
ATOM     25  O   UNL     1     -59.286 -43.714 -80.153  0.00  0.00    +0.000 OA
BRANCH  24  26
ATOM     26  C   UNL     1     -60.697 -42.763 -78.478  0.00  0.00    +0.000 C 
ATOM     27  C   UNL     1     -60.744 -41.393 -79.150  0.00  0.00    +0.000 C 
ATOM     28  C   UNL     1     -62.017 -43.507 -78.696  0.00  0.00    +0.000 C 
ENDBRANCH  24  26
ENDBRANCH  13  24
TORSDOF 5
