REMARK VINA RESULT:    -5.273      4.307      5.985
REMARK INTER + INTRA:          -7.664
REMARK INTER:                  -6.815
REMARK INTRA:                  -0.849
REMARK UNBOUND:                -0.850
REMARK  Name = 
REMARK  6 active torsions:
REMARK  status: ('A' for Active; 'I' for Inactive)
REMARK    1  A    between atoms: C_1  and  C_2
REMARK    2  A    between atoms: C_4  and  C_5
REMARK    3  A    between atoms: C_5  and  S_6
REMARK    4  A    between atoms: S_6  and  C_8
REMARK    5  A    between atoms: C_20  and  C_21
REMARK    6  A    between atoms: C_21  and  C_23
REMARK                            x       y       z     vdW  Elec       q    Type
REMARK                         _______ _______ _______ _____ _____    ______ ____
ROOT
ATOM      1  C   UNL     1     -56.480 -41.528 -79.485  0.00  0.00    +0.000 A 
ATOM      2  N   UNL     1     -55.426 -41.636 -80.413  0.00  0.00    +0.000 N 
ATOM      3  C   UNL     1     -54.086 -41.812 -79.969  0.00  0.00    +0.000 A 
ATOM      4  C   UNL     1     -53.062 -42.308 -80.797  0.00  0.00    +0.000 A 
ATOM      5 BR   UNL     1     -53.439 -42.957 -82.539  0.00  0.00    +0.000 Br
ATOM      6  C   UNL     1     -51.733 -42.362 -80.354  0.00  0.00    +0.000 A 
ATOM      7  C   UNL     1     -51.418 -41.941 -79.057  0.00  0.00    +0.000 A 
ATOM      8  C   UNL     1     -52.417 -41.447 -78.217  0.00  0.00    +0.000 A 
ATOM      9 CL   UNL     1     -51.939 -41.022 -76.613  0.00  0.00    +0.000 Cl
ATOM     10  C   UNL     1     -53.737 -41.365 -78.685  0.00  0.00    +0.000 A 
ATOM     11  C   UNL     1     -54.842 -40.778 -77.902  0.00  0.00    +0.000 A 
ATOM     12  O   UNL     1     -54.652 -39.881 -77.090  0.00  0.00    +0.000 OA
ATOM     13  C   UNL     1     -56.235 -41.257 -78.184  0.00  0.00    +0.000 A 
ATOM     14  H   UNL     1     -55.676 -42.225 -81.219  0.00  0.00    +0.000 HD
ENDROOT
BRANCH   1  15
ATOM     15  S   UNL     1     -58.035 -42.213 -80.114  0.00  0.00    +0.000 S 
ATOM     16  O   UNL     1     -58.336 -43.358 -79.186  0.00  0.00    +0.000 OA
BRANCH  15  17
ATOM     17  C   UNL     1     -57.764 -42.912 -81.769  0.00  0.00    +0.000 C 
BRANCH  17  21
ATOM     18  C   UNL     1     -57.431 -39.279 -85.363  0.00  0.00    +0.000 C 
ATOM     19  C   UNL     1     -57.495 -40.464 -84.487  0.00  0.00    +0.000 A 
ATOM     20  C   UNL     1     -57.599 -40.658 -83.130  0.00  0.00    +0.000 A 
ATOM     21  C   UNL     1     -57.704 -42.059 -82.979  0.00  0.00    +0.000 A 
ATOM     22  N   UNL     1     -57.598 -42.671 -84.171  0.00  0.00    +0.000 NA
ATOM     23  O   UNL     1     -57.468 -41.669 -85.110  0.00  0.00    +0.000 OA
ENDBRANCH  17  21
ENDBRANCH  15  17
ENDBRANCH   1  15
BRANCH  13  24
ATOM     24  C   UNL     1     -57.041 -41.511 -76.955  0.00  0.00    +0.000 C 
ATOM     25  O   UNL     1     -58.003 -40.811 -76.690  0.00  0.00    +0.000 OA
BRANCH  24  26
ATOM     26  C   UNL     1     -56.683 -42.653 -76.093  0.00  0.00    +0.000 C 
ATOM     27  C   UNL     1     -57.320 -42.783 -74.733  0.00  0.00    +0.000 C 
ATOM     28  C   UNL     1     -55.861 -42.461 -74.841  0.00  0.00    +0.000 C 
ENDBRANCH  24  26
ENDBRANCH  13  24
TORSDOF 5
