REMARK VINA RESULT:    -6.839      3.935      6.127
REMARK INTER + INTRA:          -9.086
REMARK INTER:                  -8.377
REMARK INTRA:                  -0.708
REMARK UNBOUND:                -0.647
REMARK  Name = 
REMARK  6 active torsions:
REMARK  status: ('A' for Active; 'I' for Inactive)
REMARK    1  A    between atoms: C_1  and  C_2
REMARK    2  A    between atoms: C_2  and  C_4
REMARK    3  A    between atoms: C_5  and  S_6
REMARK    4  A    between atoms: S_6  and  C_8
REMARK    5  A    between atoms: C_8  and  C_9
REMARK    6  A    between atoms: C_11  and  C_12
REMARK                            x       y       z     vdW  Elec       q    Type
REMARK                         _______ _______ _______ _____ _____    ______ ____
ROOT
ATOM      1  C   UNL     1     -54.156 -40.991 -78.494  0.00  0.00    +0.000 A 
ATOM      2  C   UNL     1     -55.116 -41.966 -78.406  0.00  0.00    +0.000 A 
ATOM      3  N   UNL     1     -55.063 -42.931 -77.434  0.00  0.00    +0.000 N 
ATOM      4  C   UNL     1     -53.977 -43.118 -76.571  0.00  0.00    +0.000 A 
ATOM      5  C   UNL     1     -53.912 -44.256 -75.740  0.00  0.00    +0.000 A 
ATOM      6 BR   UNL     1     -55.263 -45.595 -75.790  0.00  0.00    +0.000 Br
ATOM      7  C   UNL     1     -52.850 -44.433 -74.861  0.00  0.00    +0.000 A 
ATOM      8  C   UNL     1     -51.832 -43.484 -74.819  0.00  0.00    +0.000 A 
ATOM      9  C   UNL     1     -51.871 -42.360 -75.654  0.00  0.00    +0.000 A 
ATOM     10 CL   UNL     1     -50.521 -41.288 -75.529  0.00  0.00    +0.000 Cl
ATOM     11  C   UNL     1     -52.956 -42.177 -76.530  0.00  0.00    +0.000 A 
ATOM     12  C   UNL     1     -53.122 -40.993 -77.395  0.00  0.00    +0.000 A 
ATOM     13  O   UNL     1     -52.439 -39.996 -77.185  0.00  0.00    +0.000 OA
ATOM     14  H   UNL     1     -55.791 -43.647 -77.446  0.00  0.00    +0.000 HD
ENDROOT
BRANCH   1  16
ATOM     15  C   UNL     1     -53.698 -40.361 -80.989  0.00  0.00    +0.000 C 
ATOM     16  C   UNL     1     -54.021 -39.932 -79.557  0.00  0.00    +0.000 C 
ATOM     17  O   UNL     1     -54.170 -38.760 -79.289  0.00  0.00    +0.000 OA
ENDBRANCH   1  16
BRANCH   2  18
ATOM     18  S   UNL     1     -56.454 -42.227 -79.645  0.00  0.00    +0.000 S 
ATOM     19  O   UNL     1     -56.775 -43.700 -79.504  0.00  0.00    +0.000 OA
BRANCH  18  20
ATOM     20  C   UNL     1     -57.866 -41.359 -78.832  0.00  0.00    +0.000 C 
BRANCH  20  21
ATOM     21  C   UNL     1     -57.860 -41.357 -77.337  0.00  0.00    +0.000 A 
ATOM     22  C   UNL     1     -57.630 -40.315 -76.406  0.00  0.00    +0.000 A 
ATOM     23  C   UNL     1     -57.824 -40.907 -75.178  0.00  0.00    +0.000 A 
ATOM     24  C   UNL     1     -57.773 -40.425 -73.791  0.00  0.00    +0.000 C 
ATOM     25  O   UNL     1     -58.139 -42.216 -75.352  0.00  0.00    +0.000 OA
ATOM     26  N   UNL     1     -58.173 -42.500 -76.702  0.00  0.00    +0.000 NA
ENDBRANCH  20  21
ENDBRANCH  18  20
ENDBRANCH   2  18
TORSDOF 4
