REMARK VINA RESULT:    -6.897      0.000      0.000
REMARK INTER + INTRA:          -9.764
REMARK INTER:                  -8.913
REMARK INTRA:                  -0.850
REMARK UNBOUND:                -0.850
REMARK  Name = 
REMARK  6 active torsions:
REMARK  status: ('A' for Active; 'I' for Inactive)
REMARK    1  A    between atoms: C_1  and  C_2
REMARK    2  A    between atoms: C_4  and  C_5
REMARK    3  A    between atoms: C_5  and  S_6
REMARK    4  A    between atoms: S_6  and  C_8
REMARK    5  A    between atoms: C_20  and  C_21
REMARK    6  A    between atoms: C_21  and  C_23
REMARK                            x       y       z     vdW  Elec       q    Type
REMARK                         _______ _______ _______ _____ _____    ______ ____
ROOT
ATOM      1  C   UNL     1     -55.694 -42.235 -76.901  0.00  0.00    +0.000 A 
ATOM      2  N   UNL     1     -54.932 -41.053 -76.973  0.00  0.00    +0.000 N 
ATOM      3  C   UNL     1     -53.537 -41.074 -76.699  0.00  0.00    +0.000 A 
ATOM      4  C   UNL     1     -52.656 -40.059 -77.117  0.00  0.00    +0.000 A 
ATOM      5 BR   UNL     1     -53.247 -38.656 -78.250  0.00  0.00    +0.000 Br
ATOM      6  C   UNL     1     -51.308 -40.063 -76.731  0.00  0.00    +0.000 A 
ATOM      7  C   UNL     1     -50.819 -41.107 -75.938  0.00  0.00    +0.000 A 
ATOM      8  C   UNL     1     -51.672 -42.125 -75.513  0.00  0.00    +0.000 A 
ATOM      9 CL   UNL     1     -50.955 -43.404 -74.599  0.00  0.00    +0.000 Cl
ATOM     10  C   UNL     1     -53.027 -42.091 -75.876  0.00  0.00    +0.000 A 
ATOM     11  C   UNL     1     -54.020 -43.075 -75.404  0.00  0.00    +0.000 A 
ATOM     12  O   UNL     1     -53.914 -43.626 -74.316  0.00  0.00    +0.000 OA
ATOM     13  C   UNL     1     -55.221 -43.330 -76.265  0.00  0.00    +0.000 A 
ATOM     14  H   UNL     1     -55.185 -40.475 -77.786  0.00  0.00    +0.000 HD
ENDROOT
BRANCH   1  15
ATOM     15  S   UNL     1     -57.069 -42.250 -78.081  0.00  0.00    +0.000 S 
ATOM     16  O   UNL     1     -56.763 -41.114 -79.019  0.00  0.00    +0.000 OA
BRANCH  15  17
ATOM     17  C   UNL     1     -58.614 -41.840 -77.217  0.00  0.00    +0.000 C 
BRANCH  17  21
ATOM     18  C   UNL     1     -59.067 -41.528 -72.127  0.00  0.00    +0.000 C 
ATOM     19  C   UNL     1     -58.804 -41.452 -73.576  0.00  0.00    +0.000 A 
ATOM     20  C   UNL     1     -59.158 -42.214 -74.664  0.00  0.00    +0.000 A 
ATOM     21  C   UNL     1     -58.640 -41.510 -75.774  0.00  0.00    +0.000 A 
ATOM     22  N   UNL     1     -57.954 -40.428 -75.367  0.00  0.00    +0.000 NA
ATOM     23  O   UNL     1     -58.061 -40.396 -73.992  0.00  0.00    +0.000 OA
ENDBRANCH  17  21
ENDBRANCH  15  17
ENDBRANCH   1  15
BRANCH  13  24
ATOM     24  C   UNL     1     -55.569 -44.773 -76.397  0.00  0.00    +0.000 C 
ATOM     25  O   UNL     1     -56.726 -45.143 -76.302  0.00  0.00    +0.000 OA
BRANCH  24  26
ATOM     26  C   UNL     1     -54.494 -45.739 -76.692  0.00  0.00    +0.000 C 
ATOM     27  C   UNL     1     -54.839 -47.191 -76.901  0.00  0.00    +0.000 C 
ATOM     28  C   UNL     1     -54.076 -46.779 -75.679  0.00  0.00    +0.000 C 
ENDBRANCH  24  26
ENDBRANCH  13  24
TORSDOF 5
