REMARK VINA RESULT:    -5.522      3.989      5.469
REMARK INTER + INTRA:          -8.373
REMARK INTER:                  -7.520
REMARK INTRA:                  -0.854
REMARK UNBOUND:                -1.238
REMARK  Name = 
REMARK  8 active torsions:
REMARK  status: ('A' for Active; 'I' for Inactive)
REMARK    1  A    between atoms: C_1  and  C_2
REMARK    2  A    between atoms: C_4  and  C_5
REMARK    3  A    between atoms: C_5  and  S_6
REMARK    4  A    between atoms: S_6  and  C_8
REMARK    5  A    between atoms: C_20  and  C_21
REMARK    6  A    between atoms: C_21  and  C_23
REMARK    7  A    between atoms: C_23  and  C_24
REMARK    8  A    between atoms: C_23  and  C_25
REMARK                            x       y       z     vdW  Elec       q    Type
REMARK                         _______ _______ _______ _____ _____    ______ ____
ROOT
ATOM      1  C   UNL     1     -57.650 -42.580 -61.928  0.00  0.00    +0.000 A 
ATOM      2  N   UNL     1     -56.298 -42.903 -61.848  0.00  0.00    +0.000 N 
ATOM      3  C   UNL     1     -55.683 -43.206 -60.618  0.00  0.00    +0.000 A 
ATOM      4  C   UNL     1     -54.474 -43.923 -60.542  0.00  0.00    +0.000 A 
ATOM      5 BR   UNL     1     -53.682 -44.668 -62.096  0.00  0.00    +0.000 Br
ATOM      6  C   UNL     1     -53.845 -44.143 -59.314  0.00  0.00    +0.000 A 
ATOM      7  C   UNL     1     -54.417 -43.654 -58.143  0.00  0.00    +0.000 A 
ATOM      8  C   UNL     1     -55.629 -42.942 -58.196  0.00  0.00    +0.000 A 
ATOM      9 CL   UNL     1     -56.277 -42.448 -56.674  0.00  0.00    +0.000 Cl
ATOM     10  C   UNL     1     -56.260 -42.714 -59.436  0.00  0.00    +0.000 A 
ATOM     11  C   UNL     1     -57.522 -41.947 -59.602  0.00  0.00    +0.000 A 
ATOM     12  O   UNL     1     -57.854 -41.120 -58.759  0.00  0.00    +0.000 OA
ATOM     13  C   UNL     1     -58.369 -42.198 -60.846  0.00  0.00    +0.000 A 
ATOM     14  H   UNL     1     -55.941 -43.410 -62.670  0.00  0.00    +0.000 HD
ENDROOT
BRANCH   1  15
ATOM     15  S   UNL     1     -58.331 -42.949 -63.589  0.00  0.00    +0.000 S 
ATOM     16  O   UNL     1     -57.445 -44.050 -64.105  0.00  0.00    +0.000 OA
BRANCH  15  17
ATOM     17  C   UNL     1     -57.976 -41.430 -64.535  0.00  0.00    +0.000 C 
BRANCH  17  21
ATOM     18  C   UNL     1     -56.203 -42.530 -69.273  0.00  0.00    +0.000 C 
ATOM     19  C   UNL     1     -56.518 -42.146 -67.880  0.00  0.00    +0.000 A 
ATOM     20  C   UNL     1     -57.664 -42.096 -67.118  0.00  0.00    +0.000 A 
ATOM     21  C   UNL     1     -57.235 -41.656 -65.832  0.00  0.00    +0.000 A 
ATOM     22  N   UNL     1     -55.909 -41.438 -65.845  0.00  0.00    +0.000 NA
ATOM     23  O   UNL     1     -55.468 -41.747 -67.117  0.00  0.00    +0.000 OA
ENDBRANCH  17  21
ENDBRANCH  15  17
ENDBRANCH   1  15
BRANCH  13  24
ATOM     24  C   UNL     1     -59.864 -42.028 -60.695  0.00  0.00    +0.000 C 
ATOM     25  O   UNL     1     -60.393 -40.946 -60.948  0.00  0.00    +0.000 OA
BRANCH  24  26
ATOM     26  C   UNL     1     -60.723 -43.177 -60.166  0.00  0.00    +0.000 C 
ATOM     27  C   UNL     1     -60.472 -44.472 -60.935  0.00  0.00    +0.000 C 
ATOM     28  C   UNL     1     -60.514 -43.402 -58.666  0.00  0.00    +0.000 C 
ENDBRANCH  24  26
ENDBRANCH  13  24
TORSDOF 5
