REMARK VINA RESULT:    -5.300     17.333     19.621
REMARK INTER + INTRA:          -7.510
REMARK INTER:                  -6.566
REMARK INTRA:                  -0.944
REMARK UNBOUND:                -0.971
REMARK  Name = 
REMARK  6 active torsions:
REMARK  status: ('A' for Active; 'I' for Inactive)
REMARK    1  A    between atoms: C_1  and  C_2
REMARK    2  A    between atoms: C_2  and  C_4
REMARK    3  A    between atoms: C_5  and  S_6
REMARK    4  A    between atoms: S_6  and  C_8
REMARK    5  A    between atoms: C_8  and  C_9
REMARK    6  A    between atoms: C_11  and  C_12
REMARK                            x       y       z     vdW  Elec       q    Type
REMARK                         _______ _______ _______ _____ _____    ______ ____
ROOT
ATOM      1  C   UNL     1     -56.758 -29.335 -60.727  0.00  0.00    +0.000 A 
ATOM      2  C   UNL     1     -56.607 -30.567 -60.187  0.00  0.00    +0.000 A 
ATOM      3  N   UNL     1     -57.036 -31.727 -60.807  0.00  0.00    +0.000 N 
ATOM      4  C   UNL     1     -57.854 -31.712 -61.953  0.00  0.00    +0.000 A 
ATOM      5  C   UNL     1     -58.360 -32.908 -62.495  0.00  0.00    +0.000 A 
ATOM      6 BR   UNL     1     -58.016 -34.581 -61.663  0.00  0.00    +0.000 Br
ATOM      7  C   UNL     1     -59.136 -32.902 -63.653  0.00  0.00    +0.000 A 
ATOM      8  C   UNL     1     -59.411 -31.696 -64.289  0.00  0.00    +0.000 A 
ATOM      9  C   UNL     1     -58.897 -30.495 -63.785  0.00  0.00    +0.000 A 
ATOM     10 CL   UNL     1     -59.351 -29.077 -64.666  0.00  0.00    +0.000 Cl
ATOM     11  C   UNL     1     -58.094 -30.503 -62.627  0.00  0.00    +0.000 A 
ATOM     12  C   UNL     1     -57.478 -29.276 -62.050  0.00  0.00    +0.000 A 
ATOM     13  O   UNL     1     -57.581 -28.213 -62.648  0.00  0.00    +0.000 OA
ATOM     14  H   UNL     1     -57.200 -32.515 -60.177  0.00  0.00    +0.000 HD
ENDROOT
BRANCH   1  16
ATOM     15  C   UNL     1     -57.245 -27.261 -59.217  0.00  0.00    +0.000 C 
ATOM     16  C   UNL     1     -56.288 -28.055 -60.082  0.00  0.00    +0.000 C 
ATOM     17  O   UNL     1     -55.142 -27.631 -60.243  0.00  0.00    +0.000 OA
ENDBRANCH   1  16
BRANCH   2  18
ATOM     18  S   UNL     1     -55.968 -30.802 -58.485  0.00  0.00    +0.000 S 
ATOM     19  O   UNL     1     -57.221 -30.814 -57.648  0.00  0.00    +0.000 OA
BRANCH  18  20
ATOM     20  C   UNL     1     -55.430 -32.544 -58.608  0.00  0.00    +0.000 C 
BRANCH  20  21
ATOM     21  C   UNL     1     -54.081 -32.683 -59.243  0.00  0.00    +0.000 A 
ATOM     22  C   UNL     1     -52.798 -32.736 -58.638  0.00  0.00    +0.000 A 
ATOM     23  C   UNL     1     -51.932 -32.997 -59.673  0.00  0.00    +0.000 A 
ATOM     24  C   UNL     1     -50.477 -33.214 -59.786  0.00  0.00    +0.000 C 
ATOM     25  O   UNL     1     -52.646 -33.079 -60.831  0.00  0.00    +0.000 OA
ATOM     26  N   UNL     1     -53.990 -32.891 -60.564  0.00  0.00    +0.000 NA
ENDBRANCH  20  21
ENDBRANCH  18  20
ENDBRANCH   2  18
TORSDOF 4
