REMARK VINA RESULT:    -5.252     10.171     12.692
REMARK INTER + INTRA:          -7.697
REMARK INTER:                  -6.604
REMARK INTRA:                  -1.093
REMARK UNBOUND:                -0.910
REMARK  Name = 
REMARK  6 active torsions:
REMARK  status: ('A' for Active; 'I' for Inactive)
REMARK    1  A    between atoms: C_1  and  C_2
REMARK    2  A    between atoms: C_4  and  C_5
REMARK    3  A    between atoms: C_5  and  S_6
REMARK    4  A    between atoms: S_6  and  C_8
REMARK    5  A    between atoms: C_20  and  C_21
REMARK    6  A    between atoms: C_21  and  C_23
REMARK                            x       y       z     vdW  Elec       q    Type
REMARK                         _______ _______ _______ _____ _____    ______ ____
ROOT
ATOM      1  C   UNL     1     -66.003 -42.910 -70.423  0.00  0.00    +0.000 A 
ATOM      2  N   UNL     1     -66.247 -43.069 -71.801  0.00  0.00    +0.000 N 
ATOM      3  C   UNL     1     -65.180 -43.349 -72.698  0.00  0.00    +0.000 A 
ATOM      4  C   UNL     1     -65.378 -43.895 -73.980  0.00  0.00    +0.000 A 
ATOM      5 BR   UNL     1     -67.094 -44.472 -74.544  0.00  0.00    +0.000 Br
ATOM      6  C   UNL     1     -64.309 -44.052 -74.874  0.00  0.00    +0.000 A 
ATOM      7  C   UNL     1     -63.017 -43.687 -74.479  0.00  0.00    +0.000 A 
ATOM      8  C   UNL     1     -62.796 -43.145 -73.213  0.00  0.00    +0.000 A 
ATOM      9 CL   UNL     1     -61.157 -42.795 -72.797  0.00  0.00    +0.000 Cl
ATOM     10  C   UNL     1     -63.880 -42.959 -72.341  0.00  0.00    +0.000 A 
ATOM     11  C   UNL     1     -63.757 -42.317 -71.018  0.00  0.00    +0.000 A 
ATOM     12  O   UNL     1     -62.915 -41.456 -70.795  0.00  0.00    +0.000 OA
ATOM     13  C   UNL     1     -64.753 -42.690 -69.960  0.00  0.00    +0.000 A 
ATOM     14  H   UNL     1     -67.098 -43.619 -71.985  0.00  0.00    +0.000 HD
ENDROOT
BRANCH   1  15
ATOM     15  S   UNL     1     -67.391 -43.469 -69.401  0.00  0.00    +0.000 S 
ATOM     16  O   UNL     1     -68.359 -44.063 -70.386  0.00  0.00    +0.000 OA
BRANCH  15  17
ATOM     17  C   UNL     1     -68.201 -42.031 -68.641  0.00  0.00    +0.000 C 
BRANCH  17  21
ATOM     18  C   UNL     1     -68.371 -42.329 -63.532  0.00  0.00    +0.000 C 
ATOM     19  C   UNL     1     -68.277 -42.037 -64.975  0.00  0.00    +0.000 A 
ATOM     20  C   UNL     1     -68.332 -42.795 -66.120  0.00  0.00    +0.000 A 
ATOM     21  C   UNL     1     -68.266 -41.854 -67.172  0.00  0.00    +0.000 A 
ATOM     22  N   UNL     1     -68.108 -40.612 -66.684  0.00  0.00    +0.000 NA
ATOM     23  O   UNL     1     -68.117 -40.732 -65.310  0.00  0.00    +0.000 OA
ENDBRANCH  17  21
ENDBRANCH  15  17
ENDBRANCH   1  15
BRANCH  13  24
ATOM     24  C   UNL     1     -64.144 -42.917 -68.618  0.00  0.00    +0.000 C 
ATOM     25  O   UNL     1     -63.409 -43.870 -68.424  0.00  0.00    +0.000 OA
BRANCH  24  26
ATOM     26  C   UNL     1     -64.408 -41.942 -67.543  0.00  0.00    +0.000 C 
ATOM     27  C   UNL     1     -64.706 -40.508 -67.899  0.00  0.00    +0.000 C 
ATOM     28  C   UNL     1     -63.418 -40.850 -67.215  0.00  0.00    +0.000 C 
ENDBRANCH  24  26
ENDBRANCH  13  24
TORSDOF 5
