REMARK VINA RESULT:    -5.269     14.329     17.482
REMARK INTER + INTRA:          -7.504
REMARK INTER:                  -6.631
REMARK INTRA:                  -0.873
REMARK UNBOUND:                -1.003
REMARK  Name = 
REMARK  6 active torsions:
REMARK  status: ('A' for Active; 'I' for Inactive)
REMARK    1  A    between atoms: C_1  and  C_2
REMARK    2  A    between atoms: C_2  and  C_4
REMARK    3  A    between atoms: C_5  and  S_6
REMARK    4  A    between atoms: S_6  and  C_8
REMARK    5  A    between atoms: C_8  and  C_9
REMARK    6  A    between atoms: C_11  and  C_12
REMARK                            x       y       z     vdW  Elec       q    Type
REMARK                         _______ _______ _______ _____ _____    ______ ____
ROOT
ATOM      1  C   UNL     1     -65.525 -47.999 -54.832  0.00  0.00    +0.000 A 
ATOM      2  C   UNL     1     -66.850 -48.270 -54.853  0.00  0.00    +0.000 A 
ATOM      3  N   UNL     1     -67.617 -48.200 -56.000  0.00  0.00    +0.000 N 
ATOM      4  C   UNL     1     -67.131 -47.679 -57.213  0.00  0.00    +0.000 A 
ATOM      5  C   UNL     1     -67.968 -47.552 -58.335  0.00  0.00    +0.000 A 
ATOM      6 BR   UNL     1     -69.812 -48.001 -58.232  0.00  0.00    +0.000 Br
ATOM      7  C   UNL     1     -67.475 -47.086 -59.553  0.00  0.00    +0.000 A 
ATOM      8  C   UNL     1     -66.132 -46.749 -59.665  0.00  0.00    +0.000 A 
ATOM      9  C   UNL     1     -65.268 -46.888 -58.569  0.00  0.00    +0.000 A 
ATOM     10 CL   UNL     1     -63.631 -46.418 -58.865  0.00  0.00    +0.000 Cl
ATOM     11  C   UNL     1     -65.766 -47.367 -57.339  0.00  0.00    +0.000 A 
ATOM     12  C   UNL     1     -64.918 -47.533 -56.132  0.00  0.00    +0.000 A 
ATOM     13  O   UNL     1     -63.732 -47.253 -56.178  0.00  0.00    +0.000 OA
ATOM     14  H   UNL     1     -68.620 -48.079 -55.850  0.00  0.00    +0.000 HD
ENDROOT
BRANCH   1  16
ATOM     15  C   UNL     1     -64.003 -49.407 -53.244  0.00  0.00    +0.000 C 
ATOM     16  C   UNL     1     -64.647 -48.088 -53.601  0.00  0.00    +0.000 C 
ATOM     17  O   UNL     1     -64.450 -47.110 -52.878  0.00  0.00    +0.000 OA
ENDBRANCH   1  16
BRANCH   2  18
ATOM     18  S   UNL     1     -67.782 -48.581 -53.316  0.00  0.00    +0.000 S 
ATOM     19  O   UNL     1     -68.783 -47.457 -53.280  0.00  0.00    +0.000 OA
BRANCH  18  20
ATOM     20  C   UNL     1     -68.715 -50.072 -53.819  0.00  0.00    +0.000 C 
BRANCH  20  21
ATOM     21  C   UNL     1     -67.912 -51.326 -53.681  0.00  0.00    +0.000 A 
ATOM     22  C   UNL     1     -67.048 -51.753 -52.638  0.00  0.00    +0.000 A 
ATOM     23  C   UNL     1     -66.598 -52.988 -53.040  0.00  0.00    +0.000 A 
ATOM     24  C   UNL     1     -65.653 -53.977 -52.489  0.00  0.00    +0.000 C 
ATOM     25  O   UNL     1     -67.185 -53.306 -54.224  0.00  0.00    +0.000 OA
ATOM     26  N   UNL     1     -68.013 -52.274 -54.626  0.00  0.00    +0.000 NA
ENDBRANCH  20  21
ENDBRANCH  18  20
ENDBRANCH   2  18
TORSDOF 4
