REMARK VINA RESULT:    -5.953     12.355     14.604
REMARK INTER + INTRA:          -8.690
REMARK INTER:                  -7.594
REMARK INTRA:                  -1.096
REMARK UNBOUND:                -0.997
REMARK  Name = 
REMARK  8 active torsions:
REMARK  status: ('A' for Active; 'I' for Inactive)
REMARK    1  A    between atoms: C_1  and  C_2
REMARK    2  A    between atoms: C_4  and  C_5
REMARK    3  A    between atoms: C_5  and  S_6
REMARK    4  A    between atoms: S_6  and  C_8
REMARK    5  A    between atoms: C_20  and  C_21
REMARK    6  A    between atoms: C_21  and  C_23
REMARK    7  A    between atoms: C_23  and  C_24
REMARK    8  A    between atoms: C_23  and  C_25
REMARK                            x       y       z     vdW  Elec       q    Type
REMARK                         _______ _______ _______ _____ _____    ______ ____
ROOT
ATOM      1  C   UNL     1     -56.709 -37.856 -62.478  0.00  0.00    +0.000 A 
ATOM      2  N   UNL     1     -56.734 -39.188 -62.883  0.00  0.00    +0.000 N 
ATOM      3  C   UNL     1     -55.594 -39.818 -63.428  0.00  0.00    +0.000 A 
ATOM      4  C   UNL     1     -55.468 -41.220 -63.481  0.00  0.00    +0.000 A 
ATOM      5 CL   UNL     1     -56.641 -42.241 -62.728  0.00  0.00    +0.000 Cl
ATOM      6  C   UNL     1     -54.382 -41.821 -64.118  0.00  0.00    +0.000 A 
ATOM      7  C   UNL     1     -53.401 -41.022 -64.710  0.00  0.00    +0.000 A 
ATOM      8  C   UNL     1     -53.501 -39.626 -64.654  0.00  0.00    +0.000 A 
ATOM      9 CL   UNL     1     -52.195 -38.747 -65.362  0.00  0.00    +0.000 Cl
ATOM     10  C   UNL     1     -54.603 -39.027 -64.025  0.00  0.00    +0.000 A 
ATOM     11  C   UNL     1     -54.853 -37.564 -63.976  0.00  0.00    +0.000 A 
ATOM     12  O   UNL     1     -54.411 -36.851 -64.868  0.00  0.00    +0.000 OA
ATOM     13  C   UNL     1     -55.728 -36.993 -62.866  0.00  0.00    +0.000 A 
ATOM     14  H   UNL     1     -57.328 -39.786 -62.294  0.00  0.00    +0.000 HD
ENDROOT
BRANCH   1  15
ATOM     15  S   UNL     1     -57.990 -37.528 -61.200  0.00  0.00    +0.000 S 
ATOM     16  O   UNL     1     -58.611 -38.878 -60.964  0.00  0.00    +0.000 OA
BRANCH  15  17
ATOM     17  C   UNL     1     -59.219 -36.506 -62.108  0.00  0.00    +0.000 C 
BRANCH  17  21
ATOM     18  C   UNL     1     -58.539 -31.416 -62.712  0.00  0.00    +0.000 C 
ATOM     19  C   UNL     1     -58.691 -32.838 -62.338  0.00  0.00    +0.000 A 
ATOM     20  C   UNL     1     -59.157 -33.968 -62.969  0.00  0.00    +0.000 A 
ATOM     21  C   UNL     1     -58.968 -35.021 -62.030  0.00  0.00    +0.000 A 
ATOM     22  N   UNL     1     -58.447 -34.531 -60.892  0.00  0.00    +0.000 NA
ATOM     23  O   UNL     1     -58.271 -33.175 -61.091  0.00  0.00    +0.000 OA
ENDBRANCH  17  21
ENDBRANCH  15  17
ENDBRANCH   1  15
BRANCH  13  24
ATOM     24  C   UNL     1     -55.336 -35.607 -62.399  0.00  0.00    +0.000 C 
ATOM     25  O   UNL     1     -55.701 -34.614 -63.042  0.00  0.00    +0.000 OA
BRANCH  24  26
ATOM     26  C   UNL     1     -54.377 -35.383 -61.244  0.00  0.00    +0.000 C 
ATOM     27  C   UNL     1     -54.461 -36.547 -60.275  0.00  0.00    +0.000 C 
ATOM     28  C   UNL     1     -52.962 -35.099 -61.735  0.00  0.00    +0.000 C 
ENDBRANCH  24  26
ENDBRANCH  13  24
TORSDOF 5
