REMARK VINA RESULT:    -6.070      9.896     13.359
REMARK INTER + INTRA:          -8.014
REMARK INTER:                  -7.148
REMARK INTRA:                  -0.866
REMARK UNBOUND:                -0.524
REMARK  Name = 
REMARK  6 active torsions:
REMARK  status: ('A' for Active; 'I' for Inactive)
REMARK    1  A    between atoms: C_1  and  C_2
REMARK    2  A    between atoms: C_2  and  C_4
REMARK    3  A    between atoms: C_5  and  S_6
REMARK    4  A    between atoms: S_6  and  C_8
REMARK    5  A    between atoms: C_8  and  C_9
REMARK    6  A    between atoms: C_11  and  C_12
REMARK                            x       y       z     vdW  Elec       q    Type
REMARK                         _______ _______ _______ _____ _____    ______ ____
ROOT
ATOM      1  C   UNL     1     -58.743 -45.453 -78.027  0.00  0.00    +0.000 A 
ATOM      2  C   UNL     1     -57.991 -44.419 -77.589  0.00  0.00    +0.000 A 
ATOM      3  N   UNL     1     -56.734 -44.571 -77.030  0.00  0.00    +0.000 N 
ATOM      4  C   UNL     1     -56.176 -45.825 -76.747  0.00  0.00    +0.000 A 
ATOM      5  C   UNL     1     -54.909 -45.928 -76.142  0.00  0.00    +0.000 A 
ATOM      6 BR   UNL     1     -53.947 -44.376 -75.615  0.00  0.00    +0.000 Br
ATOM      7  C   UNL     1     -54.323 -47.168 -75.908  0.00  0.00    +0.000 A 
ATOM      8  C   UNL     1     -54.996 -48.328 -76.287  0.00  0.00    +0.000 A 
ATOM      9  C   UNL     1     -56.247 -48.251 -76.909  0.00  0.00    +0.000 A 
ATOM     10 CL   UNL     1     -56.956 -49.775 -77.320  0.00  0.00    +0.000 Cl
ATOM     11  C   UNL     1     -56.838 -46.996 -77.156  0.00  0.00    +0.000 A 
ATOM     12  C   UNL     1     -58.170 -46.828 -77.804  0.00  0.00    +0.000 A 
ATOM     13  O   UNL     1     -58.824 -47.815 -78.118  0.00  0.00    +0.000 OA
ATOM     14  H   UNL     1     -56.430 -43.806 -76.427  0.00  0.00    +0.000 HD
ENDROOT
BRANCH   1  16
ATOM     15  C   UNL     1     -61.339 -45.423 -77.798  0.00  0.00    +0.000 C 
ATOM     16  C   UNL     1     -60.104 -45.312 -78.665  0.00  0.00    +0.000 C 
ATOM     17  O   UNL     1     -60.235 -45.122 -79.874  0.00  0.00    +0.000 OA
ENDBRANCH   1  16
BRANCH   2  18
ATOM     18  S   UNL     1     -58.651 -42.721 -77.539  0.00  0.00    +0.000 S 
ATOM     19  O   UNL     1     -59.588 -42.742 -76.361  0.00  0.00    +0.000 OA
BRANCH  18  20
ATOM     20  C   UNL     1     -57.155 -41.832 -76.975  0.00  0.00    +0.000 C 
BRANCH  20  21
ATOM     21  C   UNL     1     -57.240 -41.414 -75.543  0.00  0.00    +0.000 A 
ATOM     22  C   UNL     1     -56.728 -42.036 -74.376  0.00  0.00    +0.000 A 
ATOM     23  C   UNL     1     -57.083 -41.196 -73.348  0.00  0.00    +0.000 A 
ATOM     24  C   UNL     1     -56.922 -41.224 -71.884  0.00  0.00    +0.000 C 
ATOM     25  O   UNL     1     -57.733 -40.119 -73.863  0.00  0.00    +0.000 OA
ATOM     26  N   UNL     1     -57.828 -40.248 -75.237  0.00  0.00    +0.000 NA
ENDBRANCH  20  21
ENDBRANCH  18  20
ENDBRANCH   2  18
TORSDOF 4
