REMARK VINA RESULT:    -5.421      4.137      6.531
REMARK INTER + INTRA:          -7.869
REMARK INTER:                  -6.872
REMARK INTRA:                  -0.997
REMARK UNBOUND:                -0.863
REMARK  Name = 
REMARK  6 active torsions:
REMARK  status: ('A' for Active; 'I' for Inactive)
REMARK    1  A    between atoms: C_1  and  C_2
REMARK    2  A    between atoms: C_4  and  C_5
REMARK    3  A    between atoms: C_5  and  S_6
REMARK    4  A    between atoms: S_6  and  C_8
REMARK    5  A    between atoms: C_20  and  C_21
REMARK    6  A    between atoms: C_21  and  C_23
REMARK                            x       y       z     vdW  Elec       q    Type
REMARK                         _______ _______ _______ _____ _____    ______ ____
ROOT
ATOM      1  C   UNL     1     -57.019 -44.781 -77.613  0.00  0.00    +0.000 A 
ATOM      2  N   UNL     1     -56.614 -43.501 -77.189  0.00  0.00    +0.000 N 
ATOM      3  C   UNL     1     -55.316 -43.295 -76.646  0.00  0.00    +0.000 A 
ATOM      4  C   UNL     1     -54.708 -42.028 -76.569  0.00  0.00    +0.000 A 
ATOM      5 BR   UNL     1     -55.517 -40.504 -77.358  0.00  0.00    +0.000 Br
ATOM      6  C   UNL     1     -53.474 -41.853 -75.928  0.00  0.00    +0.000 A 
ATOM      7  C   UNL     1     -52.817 -42.960 -75.377  0.00  0.00    +0.000 A 
ATOM      8  C   UNL     1     -53.399 -44.226 -75.443  0.00  0.00    +0.000 A 
ATOM      9 CL   UNL     1     -52.476 -45.536 -74.798  0.00  0.00    +0.000 Cl
ATOM     10  C   UNL     1     -54.652 -44.381 -76.056  0.00  0.00    +0.000 A 
ATOM     11  C   UNL     1     -55.382 -45.663 -76.098  0.00  0.00    +0.000 A 
ATOM     12  O   UNL     1     -55.267 -46.500 -75.212  0.00  0.00    +0.000 OA
ATOM     13  C   UNL     1     -56.345 -45.887 -77.227  0.00  0.00    +0.000 A 
ATOM     14  H   UNL     1     -56.913 -42.762 -77.840  0.00  0.00    +0.000 HD
ENDROOT
BRANCH   1  15
ATOM     15  S   UNL     1     -58.173 -44.720 -79.009  0.00  0.00    +0.000 S 
ATOM     16  O   UNL     1     -58.928 -46.018 -78.921  0.00  0.00    +0.000 OA
BRANCH  15  17
ATOM     17  C   UNL     1     -57.240 -44.738 -80.568  0.00  0.00    +0.000 C 
BRANCH  17  21
ATOM     18  C   UNL     1     -53.323 -41.449 -80.821  0.00  0.00    +0.000 C 
ATOM     19  C   UNL     1     -54.304 -42.549 -80.762  0.00  0.00    +0.000 A 
ATOM     20  C   UNL     1     -55.662 -42.624 -80.567  0.00  0.00    +0.000 A 
ATOM     21  C   UNL     1     -55.970 -43.994 -80.728  0.00  0.00    +0.000 A 
ATOM     22  N   UNL     1     -54.849 -44.707 -80.938  0.00  0.00    +0.000 NA
ATOM     23  O   UNL     1     -53.811 -43.798 -80.960  0.00  0.00    +0.000 OA
ENDBRANCH  17  21
ENDBRANCH  15  17
ENDBRANCH   1  15
BRANCH  13  24
ATOM     24  C   UNL     1     -56.255 -47.247 -77.829  0.00  0.00    +0.000 C 
ATOM     25  O   UNL     1     -55.533 -47.454 -78.789  0.00  0.00    +0.000 OA
BRANCH  24  26
ATOM     26  C   UNL     1     -57.019 -48.349 -77.214  0.00  0.00    +0.000 C 
ATOM     27  C   UNL     1     -56.573 -49.772 -77.431  0.00  0.00    +0.000 C 
ATOM     28  C   UNL     1     -57.848 -49.292 -78.053  0.00  0.00    +0.000 C 
ENDBRANCH  24  26
ENDBRANCH  13  24
TORSDOF 5
