REMARK VINA RESULT:    -6.167     13.331     14.859
REMARK INTER + INTRA:          -8.253
REMARK INTER:                  -7.416
REMARK INTRA:                  -0.837
REMARK UNBOUND:                -0.644
REMARK  Name = 
REMARK  6 active torsions:
REMARK  status: ('A' for Active; 'I' for Inactive)
REMARK    1  A    between atoms: C_1  and  C_2
REMARK    2  A    between atoms: C_2  and  C_4
REMARK    3  A    between atoms: C_5  and  S_6
REMARK    4  A    between atoms: S_6  and  C_8
REMARK    5  A    between atoms: C_8  and  C_9
REMARK    6  A    between atoms: C_11  and  C_12
REMARK                            x       y       z     vdW  Elec       q    Type
REMARK                         _______ _______ _______ _____ _____    ______ ____
ROOT
ATOM      1  C   UNL     1     -58.390 -39.396 -62.434  0.00  0.00    +0.000 A 
ATOM      2  C   UNL     1     -57.713 -40.398 -63.039  0.00  0.00    +0.000 A 
ATOM      3  N   UNL     1     -56.425 -40.264 -63.518  0.00  0.00    +0.000 N 
ATOM      4  C   UNL     1     -55.752 -39.031 -63.561  0.00  0.00    +0.000 A 
ATOM      5  C   UNL     1     -54.449 -38.938 -64.083  0.00  0.00    +0.000 A 
ATOM      6 BR   UNL     1     -53.571 -40.460 -64.804  0.00  0.00    +0.000 Br
ATOM      7  C   UNL     1     -53.760 -37.730 -64.087  0.00  0.00    +0.000 A 
ATOM      8  C   UNL     1     -54.368 -36.591 -63.555  0.00  0.00    +0.000 A 
ATOM      9  C   UNL     1     -55.655 -36.662 -63.010  0.00  0.00    +0.000 A 
ATOM     10 CL   UNL     1     -56.279 -35.164 -62.412  0.00  0.00    +0.000 Cl
ATOM     11  C   UNL     1     -56.342 -37.892 -62.987  0.00  0.00    +0.000 A 
ATOM     12  C   UNL     1     -57.697 -38.059 -62.392  0.00  0.00    +0.000 A 
ATOM     13  O   UNL     1     -58.267 -37.095 -61.898  0.00  0.00    +0.000 OA
ATOM     14  H   UNL     1     -56.151 -40.937 -64.237  0.00  0.00    +0.000 HD
ENDROOT
BRANCH   1  16
ATOM     15  C   UNL     1     -59.937 -40.003 -60.428  0.00  0.00    +0.000 C 
ATOM     16  C   UNL     1     -59.776 -39.527 -61.855  0.00  0.00    +0.000 C 
ATOM     17  O   UNL     1     -60.781 -39.271 -62.519  0.00  0.00    +0.000 OA
ENDBRANCH   1  16
BRANCH   2  18
ATOM     18  S   UNL     1     -58.516 -41.989 -63.431  0.00  0.00    +0.000 S 
ATOM     19  O   UNL     1     -59.394 -41.654 -64.607  0.00  0.00    +0.000 OA
BRANCH  18  20
ATOM     20  C   UNL     1     -57.079 -42.890 -64.119  0.00  0.00    +0.000 C 
BRANCH  20  21
ATOM     21  C   UNL     1     -57.138 -42.940 -65.609  0.00  0.00    +0.000 A 
ATOM     22  C   UNL     1     -56.519 -42.085 -66.559  0.00  0.00    +0.000 A 
ATOM     23  C   UNL     1     -56.878 -42.605 -67.779  0.00  0.00    +0.000 A 
ATOM     24  C   UNL     1     -56.619 -42.230 -69.181  0.00  0.00    +0.000 C 
ATOM     25  O   UNL     1     -57.644 -43.710 -67.581  0.00  0.00    +0.000 OA
ATOM     26  N   UNL     1     -57.802 -43.929 -66.223  0.00  0.00    +0.000 NA
ENDBRANCH  20  21
ENDBRANCH  18  20
ENDBRANCH   2  18
TORSDOF 4
