REMARK VINA RESULT:    -6.232      3.436      5.314
REMARK INTER + INTRA:          -8.356
REMARK INTER:                  -7.454
REMARK INTRA:                  -0.903
REMARK UNBOUND:                -0.667
REMARK  Name = 
REMARK  6 active torsions:
REMARK  status: ('A' for Active; 'I' for Inactive)
REMARK    1  A    between atoms: C_1  and  C_2
REMARK    2  A    between atoms: C_2  and  C_4
REMARK    3  A    between atoms: C_5  and  S_6
REMARK    4  A    between atoms: S_6  and  C_8
REMARK    5  A    between atoms: C_8  and  C_9
REMARK    6  A    between atoms: C_11  and  C_12
REMARK                            x       y       z     vdW  Elec       q    Type
REMARK                         _______ _______ _______ _____ _____    ______ ____
ROOT
ATOM      1  C   UNL     1     -54.673 -43.734 -61.343  0.00  0.00    +0.000 A 
ATOM      2  C   UNL     1     -55.766 -43.160 -61.897  0.00  0.00    +0.000 A 
ATOM      3  N   UNL     1     -56.680 -42.419 -61.175  0.00  0.00    +0.000 N 
ATOM      4  C   UNL     1     -56.615 -42.271 -59.779  0.00  0.00    +0.000 A 
ATOM      5  C   UNL     1     -57.547 -41.470 -59.092  0.00  0.00    +0.000 A 
ATOM      6 BR   UNL     1     -58.968 -40.613 -60.018  0.00  0.00    +0.000 Br
ATOM      7  C   UNL     1     -57.453 -41.277 -57.716  0.00  0.00    +0.000 A 
ATOM      8  C   UNL     1     -56.419 -41.879 -57.007  0.00  0.00    +0.000 A 
ATOM      9  C   UNL     1     -55.463 -42.658 -57.669  0.00  0.00    +0.000 A 
ATOM     10 CL   UNL     1     -54.235 -43.333 -56.655  0.00  0.00    +0.000 Cl
ATOM     11  C   UNL     1     -55.545 -42.839 -59.065  0.00  0.00    +0.000 A 
ATOM     12  C   UNL     1     -54.562 -43.640 -59.845  0.00  0.00    +0.000 A 
ATOM     13  O   UNL     1     -53.685 -44.269 -59.265  0.00  0.00    +0.000 OA
ATOM     14  H   UNL     1     -57.609 -42.330 -61.590  0.00  0.00    +0.000 HD
ENDROOT
BRANCH   1  16
ATOM     15  C   UNL     1     -52.590 -43.689 -62.893  0.00  0.00    +0.000 C 
ATOM     16  C   UNL     1     -53.613 -44.478 -62.108  0.00  0.00    +0.000 C 
ATOM     17  O   UNL     1     -53.577 -45.708 -62.138  0.00  0.00    +0.000 OA
ENDBRANCH   1  16
BRANCH   2  18
ATOM     18  S   UNL     1     -56.216 -43.473 -63.636  0.00  0.00    +0.000 S 
ATOM     19  O   UNL     1     -57.559 -44.148 -63.533  0.00  0.00    +0.000 OA
BRANCH  18  20
ATOM     20  C   UNL     1     -56.553 -41.760 -64.176  0.00  0.00    +0.000 C 
BRANCH  20  21
ATOM     21  C   UNL     1     -55.292 -40.968 -64.313  0.00  0.00    +0.000 A 
ATOM     22  C   UNL     1     -54.197 -41.173 -65.194  0.00  0.00    +0.000 A 
ATOM     23  C   UNL     1     -53.355 -40.118 -64.950  0.00  0.00    +0.000 A 
ATOM     24  C   UNL     1     -52.056 -39.685 -65.501  0.00  0.00    +0.000 C 
ATOM     25  O   UNL     1     -53.902 -39.328 -63.991  0.00  0.00    +0.000 OA
ATOM     26  N   UNL     1     -55.118 -39.853 -63.591  0.00  0.00    +0.000 NA
ENDBRANCH  20  21
ENDBRANCH  18  20
ENDBRANCH   2  18
TORSDOF 4
