REMARK VINA RESULT:    -6.763      3.354      5.184
REMARK INTER + INTRA:          -9.613
REMARK INTER:                  -8.827
REMARK INTRA:                  -0.786
REMARK UNBOUND:                -0.873
REMARK  Name = 
REMARK  6 active torsions:
REMARK  status: ('A' for Active; 'I' for Inactive)
REMARK    1  A    between atoms: C_1  and  C_2
REMARK    2  A    between atoms: C_4  and  C_5
REMARK    3  A    between atoms: C_5  and  S_6
REMARK    4  A    between atoms: S_6  and  C_8
REMARK    5  A    between atoms: C_20  and  C_21
REMARK    6  A    between atoms: C_21  and  C_23
REMARK                            x       y       z     vdW  Elec       q    Type
REMARK                         _______ _______ _______ _____ _____    ______ ____
ROOT
ATOM      1  C   UNL     1     -54.572 -41.796 -77.019  0.00  0.00    +0.000 A 
ATOM      2  N   UNL     1     -55.846 -41.948 -77.602  0.00  0.00    +0.000 N 
ATOM      3  C   UNL     1     -56.018 -41.824 -79.008  0.00  0.00    +0.000 A 
ATOM      4  C   UNL     1     -57.138 -42.333 -79.692  0.00  0.00    +0.000 A 
ATOM      5 BR   UNL     1     -58.432 -43.393 -78.798  0.00  0.00    +0.000 Br
ATOM      6  C   UNL     1     -57.322 -42.094 -81.061  0.00  0.00    +0.000 A 
ATOM      7  C   UNL     1     -56.364 -41.360 -81.770  0.00  0.00    +0.000 A 
ATOM      8  C   UNL     1     -55.245 -40.848 -81.114  0.00  0.00    +0.000 A 
ATOM      9 CL   UNL     1     -54.087 -40.019 -82.092  0.00  0.00    +0.000 Cl
ATOM     10  C   UNL     1     -55.090 -41.063 -79.736  0.00  0.00    +0.000 A 
ATOM     11  C   UNL     1     -53.987 -40.489 -78.943  0.00  0.00    +0.000 A 
ATOM     12  O   UNL     1     -53.468 -39.420 -79.238  0.00  0.00    +0.000 OA
ATOM     13  C   UNL     1     -53.560 -41.217 -77.702  0.00  0.00    +0.000 A 
ATOM     14  H   UNL     1     -56.373 -42.728 -77.186  0.00  0.00    +0.000 HD
ENDROOT
BRANCH   1  15
ATOM     15  S   UNL     1     -54.356 -42.822 -75.541  0.00  0.00    +0.000 S 
ATOM     16  O   UNL     1     -53.294 -43.813 -75.932  0.00  0.00    +0.000 OA
BRANCH  15  17
ATOM     17  C   UNL     1     -55.881 -43.756 -75.223  0.00  0.00    +0.000 C 
BRANCH  17  21
ATOM     18  C   UNL     1     -59.409 -41.488 -72.285  0.00  0.00    +0.000 C 
ATOM     19  C   UNL     1     -58.524 -42.099 -73.294  0.00  0.00    +0.000 A 
ATOM     20  C   UNL     1     -57.261 -42.643 -73.270  0.00  0.00    +0.000 A 
ATOM     21  C   UNL     1     -57.061 -43.133 -74.580  0.00  0.00    +0.000 A 
ATOM     22  N   UNL     1     -58.115 -42.836 -75.361  0.00  0.00    +0.000 NA
ATOM     23  O   UNL     1     -59.027 -42.192 -74.551  0.00  0.00    +0.000 OA
ENDBRANCH  17  21
ENDBRANCH  15  17
ENDBRANCH   1  15
BRANCH  13  24
ATOM     24  C   UNL     1     -52.081 -41.313 -77.543  0.00  0.00    +0.000 C 
ATOM     25  O   UNL     1     -51.400 -41.852 -78.398  0.00  0.00    +0.000 OA
BRANCH  24  26
ATOM     26  C   UNL     1     -51.452 -40.704 -76.356  0.00  0.00    +0.000 C 
ATOM     27  C   UNL     1     -49.953 -40.556 -76.305  0.00  0.00    +0.000 C 
ATOM     28  C   UNL     1     -50.634 -41.530 -75.392  0.00  0.00    +0.000 C 
ENDBRANCH  24  26
ENDBRANCH  13  24
TORSDOF 5
