=
 OpenBabel09162515413D

 26 28  0  0  0  0  0  0  0  0999 V2000
  -56.3570  -42.6180  -76.7250 C   0  0  0  0  0  0  0  0  0  0  0  0
  -55.3100  -43.4160  -76.3420 C   0  0  0  0  0  0  0  0  0  0  0  0
  -55.3240  -44.7670  -76.5730 N   0  0  0  0  0  0  0  0  0  0  0  0
  -56.4360  -45.4710  -77.0490 C   0  0  0  0  0  0  0  0  0  0  0  0
  -56.4360  -46.8820  -77.0650 C   0  0  0  0  0  0  0  0  0  0  0  0
  -54.9560  -47.8780  -76.4040 Br  0  0  0  0  0  0  0  0  0  0  0  0
  -57.5270  -47.5860  -77.5620 C   0  0  0  0  0  3  0  0  0  0  0  0
  -58.6360  -46.8860  -78.0300 C   0  0  0  0  0  3  0  0  0  0  0  0
  -58.6600  -45.4870  -78.0000 C   0  0  0  0  0  0  0  0  0  0  0  0
  -60.1170  -44.7510  -78.5690 Cl  0  0  0  0  0  0  0  0  0  0  0  0
  -57.5480  -44.7780  -77.5110 C   0  0  0  0  0  0  0  0  0  0  0  0
  -57.4510  -43.3050  -77.5050 C   0  0  0  0  0  0  0  0  0  0  0  0
  -58.2430  -42.6500  -78.1720 O   0  0  0  0  0  0  0  0  0  0  0  0
  -54.5280  -45.3080  -76.2320 H   0  0  0  0  0  0  0  0  0  0  0  0
  -57.5000  -40.7100  -75.3520 C   0  0  0  0  0  1  0  0  0  0  0  0
  -56.5330  -41.1470  -76.4540 C   0  0  0  0  0  0  0  0  0  0  0  0
  -55.9180  -40.3190  -77.0900 O   0  0  0  0  0  0  0  0  0  0  0  0
  -53.8790  -42.8460  -75.3320 S   0  0  1  0  0  0  0  0  0  0  0  0
  -53.2040  -44.1400  -74.9260 O   0  0  0  0  0  0  0  0  0  0  0  0
  -52.7830  -42.1340  -76.6360 C   0  0  0  0  0  2  0  0  0  0  0  0
  -51.6490  -41.2910  -76.1480 C   0  0  0  0  0  0  0  0  0  0  0  0
  -51.3930  -39.9040  -76.2780 C   0  0  0  0  0  3  0  0  0  0  0  0
  -50.2310  -39.7040  -75.5650 C   0  0  0  0  0  0  0  0  0  0  0  0
  -49.4110  -38.5250  -75.2590 C   0  0  0  0  0  1  0  0  0  0  0  0
  -49.8100  -40.8860  -75.0480 O   0  0  0  0  0  0  0  0  0  0  0  0
  -50.6990  -41.8810  -75.4020 N   0  0  0  0  0  0  0  0  0  0  0  0
  1 16  1  0  0  0  0
  1  2  2  0  0  0  0
  2 18  1  0  0  0  0
  3  2  1  0  0  0  0
  3 14  1  0  0  0  0
  4  3  1  0  0  0  0
  5  4  1  0  0  0  0
  5  6  1  0  0  0  0
  7  5  2  0  0  0  0
  8  9  2  0  0  0  0
  8  7  1  0  0  0  0
  9 11  1  0  0  0  0
 10  9  1  0  0  0  0
 11 12  1  0  0  0  0
 11  4  2  0  0  0  0
 12  1  1  0  0  0  0
 13 12  2  0  0  0  0
 16 15  1  0  0  0  0
 17 16  2  0  0  0  0
 18 19  2  6  0  0  0
 20 21  1  0  0  0  0
 20 18  1  0  0  0  0
 21 26  2  0  0  0  0
 22 21  1  0  0  0  0
 22 23  2  0  0  0  0
 23 24  1  0  0  0  0
 23 25  1  0  0  0  0
 26 25  1  0  0  0  0
M  END
>  <MODEL>
1

>  <REMARK>
 VINA RESULT:    -7.000      0.000      0.000
 INTER + INTRA:          -9.284
 INTER:                  -8.637
 INTRA:                  -0.647
 UNBOUND:                -0.647
  Name = 
  6 active torsions:
  status: ('A' for Active; 'I' for Inactive)
    1  A    between atoms: C_1  and  C_2
    2  A    between atoms: C_2  and  C_4
    3  A    between atoms: C_5  and  S_6
    4  A    between atoms: S_6  and  C_8
    5  A    between atoms: C_8  and  C_9
    6  A    between atoms: C_11  and  C_12
                            x       y       z     vdW  Elec       q    Type
                         _______ _______ _______ _____ _____    ______ ____

>  <TORSDO>
F 4

$$$$
