REMARK VINA RESULT:    -5.297      7.135      9.888
REMARK INTER + INTRA:          -7.709
REMARK INTER:                  -7.023
REMARK INTRA:                  -0.686
REMARK UNBOUND:                -0.863
REMARK  Name = 
REMARK  6 active torsions:
REMARK  status: ('A' for Active; 'I' for Inactive)
REMARK    1  A    between atoms: C_1  and  C_2
REMARK    2  A    between atoms: C_4  and  C_5
REMARK    3  A    between atoms: C_5  and  S_6
REMARK    4  A    between atoms: S_6  and  C_8
REMARK    5  A    between atoms: C_20  and  C_21
REMARK    6  A    between atoms: C_21  and  C_23
REMARK                            x       y       z     vdW  Elec       q    Type
REMARK                         _______ _______ _______ _____ _____    ______ ____
ROOT
ATOM      1  C   UNL     1     -63.007 -40.377 -81.180  0.00  0.00    +0.000 A 
ATOM      2  N   UNL     1     -63.174 -41.651 -80.602  0.00  0.00    +0.000 N 
ATOM      3  C   UNL     1     -62.281 -42.111 -79.596  0.00  0.00    +0.000 A 
ATOM      4  C   UNL     1     -62.593 -43.164 -78.716  0.00  0.00    +0.000 A 
ATOM      5 BR   UNL     1     -64.325 -43.939 -78.691  0.00  0.00    +0.000 Br
ATOM      6  C   UNL     1     -61.643 -43.659 -77.811  0.00  0.00    +0.000 A 
ATOM      7  C   UNL     1     -60.369 -43.082 -77.760  0.00  0.00    +0.000 A 
ATOM      8  C   UNL     1     -60.037 -42.036 -78.621  0.00  0.00    +0.000 A 
ATOM      9 CL   UNL     1     -58.466 -41.346 -78.430  0.00  0.00    +0.000 Cl
ATOM     10  C   UNL     1     -60.985 -41.573 -79.547  0.00  0.00    +0.000 A 
ATOM     11  C   UNL     1     -60.698 -40.533 -80.553  0.00  0.00    +0.000 A 
ATOM     12  O   UNL     1     -59.577 -40.382 -81.023  0.00  0.00    +0.000 OA
ATOM     13  C   UNL     1     -61.843 -39.703 -81.052  0.00  0.00    +0.000 A 
ATOM     14  H   UNL     1     -64.162 -41.865 -80.409  0.00  0.00    +0.000 HD
ENDROOT
BRANCH   1  15
ATOM     15  S   UNL     1     -64.581 -39.622 -81.667  0.00  0.00    +0.000 S 
ATOM     16  O   UNL     1     -64.274 -38.935 -82.970  0.00  0.00    +0.000 OA
BRANCH  15  17
ATOM     17  C   UNL     1     -65.032 -38.334 -80.467  0.00  0.00    +0.000 C 
BRANCH  17  21
ATOM     18  C   UNL     1     -69.784 -37.075 -79.035  0.00  0.00    +0.000 C 
ATOM     19  C   UNL     1     -68.470 -37.638 -79.397  0.00  0.00    +0.000 A 
ATOM     20  C   UNL     1     -67.325 -37.132 -79.966  0.00  0.00    +0.000 A 
ATOM     21  C   UNL     1     -66.409 -38.206 -79.936  0.00  0.00    +0.000 A 
ATOM     22  N   UNL     1     -66.995 -39.312 -79.443  0.00  0.00    +0.000 NA
ATOM     23  O   UNL     1     -68.282 -38.950 -79.106  0.00  0.00    +0.000 OA
ENDBRANCH  17  21
ENDBRANCH  15  17
ENDBRANCH   1  15
BRANCH  13  24
ATOM     24  C   UNL     1     -61.530 -38.248 -81.152  0.00  0.00    +0.000 C 
ATOM     25  O   UNL     1     -61.622 -37.667 -82.219  0.00  0.00    +0.000 OA
BRANCH  24  26
ATOM     26  C   UNL     1     -61.155 -37.516 -79.928  0.00  0.00    +0.000 C 
ATOM     27  C   UNL     1     -61.724 -37.950 -78.601  0.00  0.00    +0.000 C 
ATOM     28  C   UNL     1     -62.151 -36.644 -79.200  0.00  0.00    +0.000 C 
ENDBRANCH  24  26
ENDBRANCH  13  24
TORSDOF 5
