REMARK VINA RESULT:    -4.785     12.574     13.951
REMARK INTER + INTRA:          -6.754
REMARK INTER:                  -6.117
REMARK INTRA:                  -0.637
REMARK UNBOUND:                -0.850
REMARK  Name = 
REMARK  6 active torsions:
REMARK  status: ('A' for Active; 'I' for Inactive)
REMARK    1  A    between atoms: C_1  and  C_2
REMARK    2  A    between atoms: C_2  and  C_4
REMARK    3  A    between atoms: C_5  and  S_6
REMARK    4  A    between atoms: S_6  and  C_8
REMARK    5  A    between atoms: C_8  and  C_9
REMARK    6  A    between atoms: C_11  and  C_12
REMARK                            x       y       z     vdW  Elec       q    Type
REMARK                         _______ _______ _______ _____ _____    ______ ____
ROOT
ATOM      1  C   UNL     1     -64.341 -43.132 -69.733  0.00  0.00    +0.000 A 
ATOM      2  C   UNL     1     -65.636 -42.892 -69.427  0.00  0.00    +0.000 A 
ATOM      3  N   UNL     1     -66.027 -42.085 -68.380  0.00  0.00    +0.000 N 
ATOM      4  C   UNL     1     -65.121 -41.475 -67.497  0.00  0.00    +0.000 A 
ATOM      5  C   UNL     1     -65.564 -40.582 -66.508  0.00  0.00    +0.000 A 
ATOM      6 BR   UNL     1     -67.418 -40.214 -66.284  0.00  0.00    +0.000 Br
ATOM      7  C   UNL     1     -64.664 -39.931 -65.668  0.00  0.00    +0.000 A 
ATOM      8  C   UNL     1     -63.300 -40.163 -65.815  0.00  0.00    +0.000 A 
ATOM      9  C   UNL     1     -62.829 -41.028 -66.810  0.00  0.00    +0.000 A 
ATOM     10 CL   UNL     1     -61.109 -41.207 -66.878  0.00  0.00    +0.000 Cl
ATOM     11  C   UNL     1     -63.739 -41.667 -67.674  0.00  0.00    +0.000 A 
ATOM     12  C   UNL     1     -63.321 -42.580 -68.771  0.00  0.00    +0.000 A 
ATOM     13  O   UNL     1     -62.150 -42.930 -68.877  0.00  0.00    +0.000 OA
ATOM     14  H   UNL     1     -66.976 -42.218 -68.032  0.00  0.00    +0.000 HD
ENDROOT
BRANCH   1  16
ATOM     15  C   UNL     1     -63.612 -45.400 -70.748  0.00  0.00    +0.000 C 
ATOM     16  C   UNL     1     -63.867 -43.918 -70.923  0.00  0.00    +0.000 C 
ATOM     17  O   UNL     1     -63.644 -43.386 -72.009  0.00  0.00    +0.000 OA
ENDBRANCH   1  16
BRANCH   2  18
ATOM     18  S   UNL     1     -66.983 -43.749 -70.305  0.00  0.00    +0.000 S 
ATOM     19  O   UNL     1     -68.205 -43.409 -69.493  0.00  0.00    +0.000 OA
BRANCH  18  20
ATOM     20  C   UNL     1     -67.068 -42.710 -71.798  0.00  0.00    +0.000 C 
BRANCH  20  21
ATOM     21  C   UNL     1     -67.312 -43.514 -73.032  0.00  0.00    +0.000 A 
ATOM     22  C   UNL     1     -68.458 -44.269 -73.394  0.00  0.00    +0.000 A 
ATOM     23  C   UNL     1     -68.189 -44.721 -74.662  0.00  0.00    +0.000 A 
ATOM     24  C   UNL     1     -68.927 -45.530 -75.650  0.00  0.00    +0.000 C 
ATOM     25  O   UNL     1     -66.959 -44.281 -75.038  0.00  0.00    +0.000 OA
ATOM     26  N   UNL     1     -66.408 -43.518 -74.022  0.00  0.00    +0.000 NA
ENDBRANCH  20  21
ENDBRANCH  18  20
ENDBRANCH   2  18
TORSDOF 4
