REMARK VINA RESULT:    -5.373     18.626     21.934
REMARK INTER + INTRA:          -7.830
REMARK INTER:                  -6.948
REMARK INTRA:                  -0.882
REMARK UNBOUND:                -0.887
REMARK  Name = 
REMARK  8 active torsions:
REMARK  status: ('A' for Active; 'I' for Inactive)
REMARK    1  A    between atoms: C_1  and  C_2
REMARK    2  A    between atoms: C_4  and  C_5
REMARK    3  A    between atoms: C_5  and  S_6
REMARK    4  A    between atoms: S_6  and  C_8
REMARK    5  A    between atoms: C_20  and  C_21
REMARK    6  A    between atoms: C_21  and  C_23
REMARK    7  A    between atoms: C_23  and  C_24
REMARK    8  A    between atoms: C_23  and  C_25
REMARK                            x       y       z     vdW  Elec       q    Type
REMARK                         _______ _______ _______ _____ _____    ______ ____
ROOT
ATOM      1  C   UNL     1     -63.848 -38.205 -83.246  0.00  0.00    +0.000 A 
ATOM      2  N   UNL     1     -63.438 -38.729 -84.468  0.00  0.00    +0.000 N 
ATOM      3  C   UNL     1     -62.715 -39.935 -84.551  0.00  0.00    +0.000 A 
ATOM      4  C   UNL     1     -62.652 -40.691 -85.736  0.00  0.00    +0.000 A 
ATOM      5 BR   UNL     1     -63.680 -40.210 -87.256  0.00  0.00    +0.000 Br
ATOM      6  C   UNL     1     -61.864 -41.843 -85.813  0.00  0.00    +0.000 A 
ATOM      7  C   UNL     1     -61.131 -42.258 -84.705  0.00  0.00    +0.000 A 
ATOM      8  C   UNL     1     -61.186 -41.521 -83.509  0.00  0.00    +0.000 A 
ATOM      9 CL   UNL     1     -60.292 -42.172 -82.183  0.00  0.00    +0.000 Cl
ATOM     10  C   UNL     1     -61.976 -40.355 -83.433  0.00  0.00    +0.000 A 
ATOM     11  C   UNL     1     -62.075 -39.490 -82.229  0.00  0.00    +0.000 A 
ATOM     12  O   UNL     1     -61.172 -39.488 -81.397  0.00  0.00    +0.000 OA
ATOM     13  C   UNL     1     -63.304 -38.600 -82.070  0.00  0.00    +0.000 A 
ATOM     14  H   UNL     1     -64.090 -38.539 -85.243  0.00  0.00    +0.000 HD
ENDROOT
BRANCH   1  15
ATOM     15  S   UNL     1     -65.314 -37.123 -83.435  0.00  0.00    +0.000 S 
ATOM     16  O   UNL     1     -66.474 -38.034 -83.137  0.00  0.00    +0.000 OA
BRANCH  15  17
ATOM     17  C   UNL     1     -65.325 -36.741 -85.220  0.00  0.00    +0.000 C 
BRANCH  17  21
ATOM     18  C   UNL     1     -67.212 -32.064 -86.392  0.00  0.00    +0.000 C 
ATOM     19  C   UNL     1     -66.487 -33.309 -86.055  0.00  0.00    +0.000 A 
ATOM     20  C   UNL     1     -66.856 -34.590 -85.713  0.00  0.00    +0.000 A 
ATOM     21  C   UNL     1     -65.631 -35.299 -85.551  0.00  0.00    +0.000 A 
ATOM     22  N   UNL     1     -64.594 -34.470 -85.765  0.00  0.00    +0.000 NA
ATOM     23  O   UNL     1     -65.131 -33.237 -86.082  0.00  0.00    +0.000 OA
ENDBRANCH  17  21
ENDBRANCH  15  17
ENDBRANCH   1  15
BRANCH  13  24
ATOM     24  C   UNL     1     -63.760 -38.319 -80.656  0.00  0.00    +0.000 C 
ATOM     25  O   UNL     1     -64.469 -39.130 -80.061  0.00  0.00    +0.000 OA
BRANCH  24  26
ATOM     26  C   UNL     1     -63.402 -36.996 -79.977  0.00  0.00    +0.000 C 
ATOM     27  C   UNL     1     -64.630 -36.319 -79.372  0.00  0.00    +0.000 C 
ATOM     28  C   UNL     1     -62.316 -37.175 -78.912  0.00  0.00    +0.000 C 
ENDBRANCH  24  26
ENDBRANCH  13  24
TORSDOF 5
