REMARK VINA RESULT:    -6.407      3.490      5.107
REMARK INTER + INTRA:          -8.835
REMARK INTER:                  -8.032
REMARK INTRA:                  -0.802
REMARK UNBOUND:                -0.930
REMARK  Name = 
REMARK  6 active torsions:
REMARK  status: ('A' for Active; 'I' for Inactive)
REMARK    1  A    between atoms: C_1  and  C_2
REMARK    2  A    between atoms: C_2  and  C_4
REMARK    3  A    between atoms: C_5  and  S_6
REMARK    4  A    between atoms: S_6  and  C_8
REMARK    5  A    between atoms: C_8  and  C_9
REMARK    6  A    between atoms: C_11  and  C_12
REMARK                            x       y       z     vdW  Elec       q    Type
REMARK                         _______ _______ _______ _____ _____    ______ ____
ROOT
ATOM      1  C   UNL     1     -55.533 -41.265 -64.097  0.00  0.00    +0.000 A 
ATOM      2  C   UNL     1     -55.777 -42.411 -63.419  0.00  0.00    +0.000 A 
ATOM      3  N   UNL     1     -54.778 -43.248 -62.952  0.00  0.00    +0.000 N 
ATOM      4  C   UNL     1     -53.453 -43.133 -63.415  0.00  0.00    +0.000 A 
ATOM      5  C   UNL     1     -52.503 -44.133 -63.153  0.00  0.00    +0.000 A 
ATOM      6 BR   UNL     1     -52.979 -45.709 -62.207  0.00  0.00    +0.000 Br
ATOM      7  C   UNL     1     -51.189 -44.001 -63.596  0.00  0.00    +0.000 A 
ATOM      8  C   UNL     1     -50.811 -42.859 -64.305  0.00  0.00    +0.000 A 
ATOM      9  C   UNL     1     -51.736 -41.832 -64.547  0.00  0.00    +0.000 A 
ATOM     10 CL   UNL     1     -51.172 -40.504 -65.490  0.00  0.00    +0.000 Cl
ATOM     11  C   UNL     1     -53.051 -41.958 -64.073  0.00  0.00    +0.000 A 
ATOM     12  C   UNL     1     -54.083 -40.894 -64.208  0.00  0.00    +0.000 A 
ATOM     13  O   UNL     1     -53.762 -39.721 -64.367  0.00  0.00    +0.000 OA
ATOM     14  H   UNL     1     -55.082 -44.216 -62.810  0.00  0.00    +0.000 HD
ENDROOT
BRANCH   1  16
ATOM     15  C   UNL     1     -57.131 -40.708 -66.075  0.00  0.00    +0.000 C 
ATOM     16  C   UNL     1     -56.574 -40.376 -64.705  0.00  0.00    +0.000 C 
ATOM     17  O   UNL     1     -56.989 -39.385 -64.104  0.00  0.00    +0.000 OA
ENDBRANCH   1  16
BRANCH   2  18
ATOM     18  S   UNL     1     -57.470 -43.048 -63.188  0.00  0.00    +0.000 S 
ATOM     19  O   UNL     1     -57.244 -44.453 -62.694  0.00  0.00    +0.000 OA
BRANCH  18  20
ATOM     20  C   UNL     1     -57.903 -42.050 -61.713  0.00  0.00    +0.000 C 
BRANCH  20  21
ATOM     21  C   UNL     1     -59.177 -41.281 -61.840  0.00  0.00    +0.000 A 
ATOM     22  C   UNL     1     -59.969 -40.973 -62.976  0.00  0.00    +0.000 A 
ATOM     23  C   UNL     1     -61.068 -40.323 -62.472  0.00  0.00    +0.000 A 
ATOM     24  C   UNL     1     -62.287 -39.728 -63.053  0.00  0.00    +0.000 C 
ATOM     25  O   UNL     1     -60.958 -40.253 -61.119  0.00  0.00    +0.000 OA
ATOM     26  N   UNL     1     -59.783 -40.854 -60.719  0.00  0.00    +0.000 NA
ENDBRANCH  20  21
ENDBRANCH  18  20
ENDBRANCH   2  18
TORSDOF 4
