MODEL 1
REMARK VINA RESULT:    -7.154      0.000      0.000
REMARK INTER + INTRA:         -10.185
REMARK INTER:                  -9.245
REMARK INTRA:                  -0.940
REMARK UNBOUND:                -0.940
REMARK  Name = 
REMARK  6 active torsions:
REMARK  status: ('A' for Active; 'I' for Inactive)
REMARK    1  A    between atoms: C_1  and  C_2
REMARK    2  A    between atoms: C_4  and  C_5
REMARK    3  A    between atoms: C_5  and  S_6
REMARK    4  A    between atoms: S_6  and  C_8
REMARK    5  A    between atoms: C_20  and  C_21
REMARK    6  A    between atoms: C_21  and  C_23
REMARK                            x       y       z     vdW  Elec       q    Type
REMARK                         _______ _______ _______ _____ _____    ______ ____
ROOT
ATOM      1  C   UNL     1     -55.473 -42.044 -63.181  0.00  0.00    +0.000 A 
ATOM      2  N   UNL     1     -54.675 -43.204 -63.175  0.00  0.00    +0.000 N 
ATOM      3  C   UNL     1     -53.286 -43.128 -63.469  0.00  0.00    +0.000 A 
ATOM      4  C   UNL     1     -52.369 -44.134 -63.111  0.00  0.00    +0.000 A 
ATOM      5 BR   UNL     1     -52.899 -45.605 -62.036  0.00  0.00    +0.000 Br
ATOM      6  C   UNL     1     -51.028 -44.072 -63.516  0.00  0.00    +0.000 A 
ATOM      7  C   UNL     1     -50.582 -42.978 -64.267  0.00  0.00    +0.000 A 
ATOM      8  C   UNL     1     -51.472 -41.968 -64.632  0.00  0.00    +0.000 A 
ATOM      9 CL   UNL     1     -50.808 -40.628 -65.495  0.00  0.00    +0.000 Cl
ATOM     10  C   UNL     1     -52.819 -42.060 -64.251  0.00  0.00    +0.000 A 
ATOM     11  C   UNL     1     -53.849 -41.086 -64.662  0.00  0.00    +0.000 A 
ATOM     12  O   UNL     1     -53.777 -40.482 -65.725  0.00  0.00    +0.000 OA
ATOM     13  C   UNL     1     -55.043 -40.908 -63.773  0.00  0.00    +0.000 A 
ATOM     14  H   UNL     1     -54.898 -43.826 -62.386  0.00  0.00    +0.000 HD
ENDROOT
BRANCH   1  15
ATOM     15  S   UNL     1     -56.829 -42.125 -61.982  0.00  0.00    +0.000 S 
ATOM     16  O   UNL     1     -56.401 -43.193 -61.012  0.00  0.00    +0.000 OA
BRANCH  15  17
ATOM     17  C   UNL     1     -58.336 -42.715 -62.808  0.00  0.00    +0.000 C 
BRANCH  17  21
ATOM     18  C   UNL     1     -58.669 -42.714 -67.918  0.00  0.00    +0.000 C 
ATOM     19  C   UNL     1     -58.734 -42.575 -66.451  0.00  0.00    +0.000 A 
ATOM     20  C   UNL     1     -58.100 -43.183 -65.393  0.00  0.00    +0.000 A 
ATOM     21  C   UNL     1     -58.573 -42.495 -64.254  0.00  0.00    +0.000 A 
ATOM     22  N   UNL     1     -59.490 -41.576 -64.604  0.00  0.00    +0.000 NA
ATOM     23  O   UNL     1     -59.585 -41.629 -65.979  0.00  0.00    +0.000 OA
ENDBRANCH  17  21
ENDBRANCH  15  17
ENDBRANCH   1  15
BRANCH  13  24
ATOM     24  C   UNL     1     -55.431 -39.483 -63.569  0.00  0.00    +0.000 C 
ATOM     25  O   UNL     1     -56.580 -39.121 -63.754  0.00  0.00    +0.000 OA
BRANCH  24  26
ATOM     26  C   UNL     1     -54.411 -38.529 -63.094  0.00  0.00    +0.000 C 
ATOM     27  C   UNL     1     -54.773 -37.074 -62.938  0.00  0.00    +0.000 C 
ATOM     28  C   UNL     1     -53.820 -37.490 -64.017  0.00  0.00    +0.000 C 
ENDBRANCH  24  26
ENDBRANCH  13  24
TORSDOF 5
ENDMDL
MODEL 2
REMARK VINA RESULT:    -6.660      3.449      5.459
REMARK INTER + INTRA:          -9.547
REMARK INTER:                  -8.701
REMARK INTRA:                  -0.845
REMARK UNBOUND:                -0.940
REMARK  Name = 
REMARK  6 active torsions:
REMARK  status: ('A' for Active; 'I' for Inactive)
REMARK    1  A    between atoms: C_1  and  C_2
REMARK    2  A    between atoms: C_4  and  C_5
REMARK    3  A    between atoms: C_5  and  S_6
REMARK    4  A    between atoms: S_6  and  C_8
REMARK    5  A    between atoms: C_20  and  C_21
REMARK    6  A    between atoms: C_21  and  C_23
REMARK                            x       y       z     vdW  Elec       q    Type
REMARK                         _______ _______ _______ _____ _____    ______ ____
ROOT
ATOM      1  C   UNL     1     -57.688 -41.097 -62.733  0.00  0.00    +0.000 A 
ATOM      2  N   UNL     1     -57.208 -39.835 -62.333  0.00  0.00    +0.000 N 
ATOM      3  C   UNL     1     -56.136 -39.214 -63.032  0.00  0.00    +0.000 A 
ATOM      4  C   UNL     1     -55.866 -37.835 -62.954  0.00  0.00    +0.000 A 
ATOM      5 BR   UNL     1     -57.038 -36.657 -62.038  0.00  0.00    +0.000 Br
ATOM      6  C   UNL     1     -54.735 -37.281 -63.570  0.00  0.00    +0.000 A 
ATOM      7  C   UNL     1     -53.872 -38.106 -64.300  0.00  0.00    +0.000 A 
ATOM      8  C   UNL     1     -54.120 -39.475 -64.393  0.00  0.00    +0.000 A 
ATOM      9 CL   UNL     1     -53.036 -40.393 -65.376  0.00  0.00    +0.000 Cl
ATOM     10  C   UNL     1     -55.235 -40.023 -63.742  0.00  0.00    +0.000 A 
ATOM     11  C   UNL     1     -55.531 -41.468 -63.712  0.00  0.00    +0.000 A 
ATOM     12  O   UNL     1     -54.642 -42.309 -63.751  0.00  0.00    +0.000 OA
ATOM     13  C   UNL     1     -56.961 -41.890 -63.550  0.00  0.00    +0.000 A 
ATOM     14  H   UNL     1     -57.969 -39.189 -62.084  0.00  0.00    +0.000 HD
ENDROOT
BRANCH   1  15
ATOM     15  S   UNL     1     -59.462 -41.298 -62.422  0.00  0.00    +0.000 S 
ATOM     16  O   UNL     1     -59.946 -39.903 -62.130  0.00  0.00    +0.000 OA
BRANCH  15  17
ATOM     17  C   UNL     1     -59.706 -42.284 -60.915  0.00  0.00    +0.000 C 
BRANCH  17  21
ATOM     18  C   UNL     1     -61.862 -46.922 -61.154  0.00  0.00    +0.000 C 
ATOM     19  C   UNL     1     -61.411 -45.531 -60.969  0.00  0.00    +0.000 A 
ATOM     20  C   UNL     1     -60.273 -44.831 -61.296  0.00  0.00    +0.000 A 
ATOM     21  C   UNL     1     -60.548 -43.502 -60.905  0.00  0.00    +0.000 A 
ATOM     22  N   UNL     1     -61.753 -43.425 -60.314  0.00  0.00    +0.000 NA
ATOM     23  O   UNL     1     -62.288 -44.695 -60.358  0.00  0.00    +0.000 OA
ENDBRANCH  17  21
ENDBRANCH  15  17
ENDBRANCH   1  15
BRANCH  13  24
ATOM     24  C   UNL     1     -57.363 -43.005 -64.455  0.00  0.00    +0.000 C 
ATOM     25  O   UNL     1     -57.389 -44.154 -64.048  0.00  0.00    +0.000 OA
BRANCH  24  26
ATOM     26  C   UNL     1     -57.774 -42.688 -65.836  0.00  0.00    +0.000 C 
ATOM     27  C   UNL     1     -57.857 -43.793 -66.857  0.00  0.00    +0.000 C 
ATOM     28  C   UNL     1     -56.789 -42.750 -66.979  0.00  0.00    +0.000 C 
ENDBRANCH  24  26
ENDBRANCH  13  24
TORSDOF 5
ENDMDL
MODEL 3
REMARK VINA RESULT:    -6.656     13.595     15.843
REMARK INTER + INTRA:          -9.541
REMARK INTER:                  -9.111
REMARK INTRA:                  -0.430
REMARK UNBOUND:                -0.940
REMARK  Name = 
REMARK  6 active torsions:
REMARK  status: ('A' for Active; 'I' for Inactive)
REMARK    1  A    between atoms: C_1  and  C_2
REMARK    2  A    between atoms: C_4  and  C_5
REMARK    3  A    between atoms: C_5  and  S_6
REMARK    4  A    between atoms: S_6  and  C_8
REMARK    5  A    between atoms: C_20  and  C_21
REMARK    6  A    between atoms: C_21  and  C_23
REMARK                            x       y       z     vdW  Elec       q    Type
REMARK                         _______ _______ _______ _____ _____    ______ ____
ROOT
ATOM      1  C   UNL     1     -53.574 -42.201 -78.503  0.00  0.00    +0.000 A 
ATOM      2  N   UNL     1     -54.790 -42.893 -78.662  0.00  0.00    +0.000 N 
ATOM      3  C   UNL     1     -55.756 -42.908 -77.618  0.00  0.00    +0.000 A 
ATOM      4  C   UNL     1     -57.110 -43.226 -77.830  0.00  0.00    +0.000 A 
ATOM      5 BR   UNL     1     -57.792 -43.487 -79.581  0.00  0.00    +0.000 Br
ATOM      6  C   UNL     1     -58.006 -43.337 -76.757  0.00  0.00    +0.000 A 
ATOM      7  C   UNL     1     -57.556 -43.102 -75.453  0.00  0.00    +0.000 A 
ATOM      8  C   UNL     1     -56.218 -42.783 -75.218  0.00  0.00    +0.000 A 
ATOM      9 CL   UNL     1     -55.780 -42.440 -73.583  0.00  0.00    +0.000 Cl
ATOM     10  C   UNL     1     -55.324 -42.710 -76.297  0.00  0.00    +0.000 A 
ATOM     11  C   UNL     1     -53.878 -42.464 -76.139  0.00  0.00    +0.000 A 
ATOM     12  O   UNL     1     -53.268 -42.827 -75.141  0.00  0.00    +0.000 OA
ATOM     13  C   UNL     1     -53.145 -41.821 -77.279  0.00  0.00    +0.000 A 
ATOM     14  H   UNL     1     -55.194 -42.759 -79.599  0.00  0.00    +0.000 HD
ENDROOT
BRANCH   1  15
ATOM     15  S   UNL     1     -52.949 -41.523 -80.063  0.00  0.00    +0.000 S 
ATOM     16  O   UNL     1     -54.031 -41.833 -81.060  0.00  0.00    +0.000 OA
BRANCH  15  17
ATOM     17  C   UNL     1     -51.464 -42.439 -80.570  0.00  0.00    +0.000 C 
BRANCH  17  21
ATOM     18  C   UNL     1     -50.069 -43.059 -85.457  0.00  0.00    +0.000 C 
ATOM     19  C   UNL     1     -50.545 -43.079 -84.062  0.00  0.00    +0.000 A 
ATOM     20  C   UNL     1     -50.459 -42.213 -82.998  0.00  0.00    +0.000 A 
ATOM     21  C   UNL     1     -51.225 -42.824 -81.980  0.00  0.00    +0.000 A 
ATOM     22  N   UNL     1     -51.684 -44.019 -82.388  0.00  0.00    +0.000 NA
ATOM     23  O   UNL     1     -51.258 -44.173 -83.691  0.00  0.00    +0.000 OA
ENDBRANCH  17  21
ENDBRANCH  15  17
ENDBRANCH   1  15
BRANCH  13  24
ATOM     24  C   UNL     1     -52.195 -40.754 -76.854  0.00  0.00    +0.000 C 
ATOM     25  O   UNL     1     -52.598 -39.633 -76.595  0.00  0.00    +0.000 OA
BRANCH  24  26
ATOM     26  C   UNL     1     -50.766 -41.091 -76.706  0.00  0.00    +0.000 C 
ATOM     27  C   UNL     1     -50.168 -41.195 -75.326  0.00  0.00    +0.000 C 
ATOM     28  C   UNL     1     -49.766 -40.066 -76.226  0.00  0.00    +0.000 C 
ENDBRANCH  24  26
ENDBRANCH  13  24
TORSDOF 5
ENDMDL
MODEL 4
REMARK VINA RESULT:    -6.502     12.313     13.452
REMARK INTER + INTRA:          -9.343
REMARK INTER:                  -8.288
REMARK INTRA:                  -1.055
REMARK UNBOUND:                -0.940
REMARK  Name = 
REMARK  6 active torsions:
REMARK  status: ('A' for Active; 'I' for Inactive)
REMARK    1  A    between atoms: C_1  and  C_2
REMARK    2  A    between atoms: C_4  and  C_5
REMARK    3  A    between atoms: C_5  and  S_6
REMARK    4  A    between atoms: S_6  and  C_8
REMARK    5  A    between atoms: C_20  and  C_21
REMARK    6  A    between atoms: C_21  and  C_23
REMARK                            x       y       z     vdW  Elec       q    Type
REMARK                         _______ _______ _______ _____ _____    ______ ____
ROOT
ATOM      1  C   UNL     1     -55.637 -43.233 -77.229  0.00  0.00    +0.000 A 
ATOM      2  N   UNL     1     -54.336 -43.481 -76.750  0.00  0.00    +0.000 N 
ATOM      3  C   UNL     1     -53.434 -42.407 -76.515  0.00  0.00    +0.000 A 
ATOM      4  C   UNL     1     -52.298 -42.524 -75.693  0.00  0.00    +0.000 A 
ATOM      5 BR   UNL     1     -51.979 -44.097 -74.681  0.00  0.00    +0.000 Br
ATOM      6  C   UNL     1     -51.376 -41.474 -75.576  0.00  0.00    +0.000 A 
ATOM      7  C   UNL     1     -51.600 -40.276 -76.264  0.00  0.00    +0.000 A 
ATOM      8  C   UNL     1     -52.720 -40.136 -77.083  0.00  0.00    +0.000 A 
ATOM      9 CL   UNL     1     -52.943 -38.596 -77.832  0.00  0.00    +0.000 Cl
ATOM     10  C   UNL     1     -53.616 -41.207 -77.220  0.00  0.00    +0.000 A 
ATOM     11  C   UNL     1     -54.780 -41.182 -78.128  0.00  0.00    +0.000 A 
ATOM     12  O   UNL     1     -54.773 -40.534 -79.167  0.00  0.00    +0.000 OA
ATOM     13  C   UNL     1     -55.959 -42.044 -77.784  0.00  0.00    +0.000 A 
ATOM     14  H   UNL     1     -54.322 -44.202 -76.015  0.00  0.00    +0.000 HD
ENDROOT
BRANCH   1  15
ATOM     15  S   UNL     1     -56.844 -44.440 -76.622  0.00  0.00    +0.000 S 
ATOM     16  O   UNL     1     -56.019 -45.654 -76.292  0.00  0.00    +0.000 OA
BRANCH  15  17
ATOM     17  C   UNL     1     -57.973 -44.899 -77.969  0.00  0.00    +0.000 C 
BRANCH  17  21
ATOM     18  C   UNL     1     -62.955 -43.908 -77.323  0.00  0.00    +0.000 C 
ATOM     19  C   UNL     1     -61.583 -44.385 -77.577  0.00  0.00    +0.000 A 
ATOM     20  C   UNL     1     -60.335 -43.812 -77.526  0.00  0.00    +0.000 A 
ATOM     21  C   UNL     1     -59.444 -44.874 -77.801  0.00  0.00    +0.000 A 
ATOM     22  N   UNL     1     -60.125 -46.001 -78.070  0.00  0.00    +0.000 NA
ATOM     23  O   UNL     1     -61.461 -45.691 -77.928  0.00  0.00    +0.000 OA
ENDBRANCH  17  21
ENDBRANCH  15  17
ENDBRANCH   1  15
BRANCH  13  24
ATOM     24  C   UNL     1     -57.272 -41.360 -77.959  0.00  0.00    +0.000 C 
ATOM     25  O   UNL     1     -57.923 -41.520 -78.977  0.00  0.00    +0.000 OA
BRANCH  24  26
ATOM     26  C   UNL     1     -57.791 -40.526 -76.859  0.00  0.00    +0.000 C 
ATOM     27  C   UNL     1     -57.159 -40.621 -75.494  0.00  0.00    +0.000 C 
ATOM     28  C   UNL     1     -58.550 -41.137 -75.704  0.00  0.00    +0.000 C 
ENDBRANCH  24  26
ENDBRANCH  13  24
TORSDOF 5
ENDMDL
MODEL 5
REMARK VINA RESULT:    -6.458     11.449     13.464
REMARK INTER + INTRA:          -9.285
REMARK INTER:                  -8.660
REMARK INTRA:                  -0.625
REMARK UNBOUND:                -0.940
REMARK  Name = 
REMARK  6 active torsions:
REMARK  status: ('A' for Active; 'I' for Inactive)
REMARK    1  A    between atoms: C_1  and  C_2
REMARK    2  A    between atoms: C_4  and  C_5
REMARK    3  A    between atoms: C_5  and  S_6
REMARK    4  A    between atoms: S_6  and  C_8
REMARK    5  A    between atoms: C_20  and  C_21
REMARK    6  A    between atoms: C_21  and  C_23
REMARK                            x       y       z     vdW  Elec       q    Type
REMARK                         _______ _______ _______ _____ _____    ______ ____
ROOT
ATOM      1  C   UNL     1     -57.611 -43.091 -77.161  0.00  0.00    +0.000 A 
ATOM      2  N   UNL     1     -57.202 -44.393 -77.506  0.00  0.00    +0.000 N 
ATOM      3  C   UNL     1     -56.111 -45.011 -76.834  0.00  0.00    +0.000 A 
ATOM      4  C   UNL     1     -55.896 -46.402 -76.839  0.00  0.00    +0.000 A 
ATOM      5 BR   UNL     1     -57.164 -47.587 -77.605  0.00  0.00    +0.000 Br
ATOM      6  C   UNL     1     -54.749 -46.960 -76.257  0.00  0.00    +0.000 A 
ATOM      7  C   UNL     1     -53.812 -46.126 -75.635  0.00  0.00    +0.000 A 
ATOM      8  C   UNL     1     -54.006 -44.745 -75.616  0.00  0.00    +0.000 A 
ATOM      9 CL   UNL     1     -52.830 -43.811 -74.762  0.00  0.00    +0.000 Cl
ATOM     10  C   UNL     1     -55.140 -44.196 -76.234  0.00  0.00    +0.000 A 
ATOM     11  C   UNL     1     -55.385 -42.744 -76.339  0.00  0.00    +0.000 A 
ATOM     12  O   UNL     1     -54.466 -41.938 -76.408  0.00  0.00    +0.000 OA
ATOM     13  C   UNL     1     -56.807 -42.277 -76.441  0.00  0.00    +0.000 A 
ATOM     14  H   UNL     1     -58.000 -45.023 -77.667  0.00  0.00    +0.000 HD
ENDROOT
BRANCH   1  15
ATOM     15  S   UNL     1     -59.393 -42.841 -77.377  0.00  0.00    +0.000 S 
ATOM     16  O   UNL     1     -59.956 -44.234 -77.440  0.00  0.00    +0.000 OA
BRANCH  15  17
ATOM     17  C   UNL     1     -59.704 -42.055 -78.985  0.00  0.00    +0.000 C 
BRANCH  17  21
ATOM     18  C   UNL     1     -62.317 -37.731 -79.820  0.00  0.00    +0.000 C 
ATOM     19  C   UNL     1     -61.460 -38.866 -79.430  0.00  0.00    +0.000 A 
ATOM     20  C   UNL     1     -61.398 -40.195 -79.777  0.00  0.00    +0.000 A 
ATOM     21  C   UNL     1     -60.265 -40.688 -79.093  0.00  0.00    +0.000 A 
ATOM     22  N   UNL     1     -59.722 -39.727 -78.325  0.00  0.00    +0.000 NA
ATOM     23  O   UNL     1     -60.472 -38.589 -78.542  0.00  0.00    +0.000 OA
ENDBRANCH  17  21
ENDBRANCH  15  17
ENDBRANCH   1  15
BRANCH  13  24
ATOM     24  C   UNL     1     -57.111 -41.093 -75.588  0.00  0.00    +0.000 C 
ATOM     25  O   UNL     1     -57.376 -40.016 -76.095  0.00  0.00    +0.000 OA
BRANCH  24  26
ATOM     26  C   UNL     1     -57.134 -41.259 -74.123  0.00  0.00    +0.000 C 
ATOM     27  C   UNL     1     -58.315 -41.930 -73.471  0.00  0.00    +0.000 C 
ATOM     28  C   UNL     1     -58.085 -40.465 -73.259  0.00  0.00    +0.000 C 
ENDBRANCH  24  26
ENDBRANCH  13  24
TORSDOF 5
ENDMDL
MODEL 6
REMARK VINA RESULT:    -6.401     12.459     14.934
REMARK INTER + INTRA:          -9.212
REMARK INTER:                  -8.633
REMARK INTRA:                  -0.578
REMARK UNBOUND:                -0.940
REMARK  Name = 
REMARK  6 active torsions:
REMARK  status: ('A' for Active; 'I' for Inactive)
REMARK    1  A    between atoms: C_1  and  C_2
REMARK    2  A    between atoms: C_4  and  C_5
REMARK    3  A    between atoms: C_5  and  S_6
REMARK    4  A    between atoms: S_6  and  C_8
REMARK    5  A    between atoms: C_20  and  C_21
REMARK    6  A    between atoms: C_21  and  C_23
REMARK                            x       y       z     vdW  Elec       q    Type
REMARK                         _______ _______ _______ _____ _____    ______ ____
ROOT
ATOM      1  C   UNL     1     -55.460 -42.462 -77.649  0.00  0.00    +0.000 A 
ATOM      2  N   UNL     1     -56.775 -42.891 -77.384  0.00  0.00    +0.000 N 
ATOM      3  C   UNL     1     -57.391 -42.605 -76.135  0.00  0.00    +0.000 A 
ATOM      4  C   UNL     1     -58.784 -42.646 -75.938  0.00  0.00    +0.000 A 
ATOM      5 BR   UNL     1     -59.971 -42.914 -77.394  0.00  0.00    +0.000 Br
ATOM      6  C   UNL     1     -59.343 -42.466 -74.665  0.00  0.00    +0.000 A 
ATOM      7  C   UNL     1     -58.506 -42.214 -73.572  0.00  0.00    +0.000 A 
ATOM      8  C   UNL     1     -57.122 -42.167 -73.742  0.00  0.00    +0.000 A 
ATOM      9 CL   UNL     1     -56.184 -41.778 -72.345  0.00  0.00    +0.000 Cl
ATOM     10  C   UNL     1     -56.574 -42.385 -75.015  0.00  0.00    +0.000 A 
ATOM     11  C   UNL     1     -55.122 -42.439 -75.276  0.00  0.00    +0.000 A 
ATOM     12  O   UNL     1     -54.329 -42.831 -74.429  0.00  0.00    +0.000 OA
ATOM     13  C   UNL     1     -54.640 -42.073 -76.648  0.00  0.00    +0.000 A 
ATOM     14  H   UNL     1     -57.398 -42.760 -78.193  0.00  0.00    +0.000 HD
ENDROOT
BRANCH   1  15
ATOM     15  S   UNL     1     -55.193 -42.078 -79.400  0.00  0.00    +0.000 S 
ATOM     16  O   UNL     1     -56.514 -42.383 -80.051  0.00  0.00    +0.000 OA
BRANCH  15  17
ATOM     17  C   UNL     1     -53.967 -43.226 -80.093  0.00  0.00    +0.000 C 
BRANCH  17  21
ATOM     18  C   UNL     1     -50.269 -42.079 -83.443  0.00  0.00    +0.000 C 
ATOM     19  C   UNL     1     -51.462 -42.423 -82.648  0.00  0.00    +0.000 A 
ATOM     20  C   UNL     1     -51.695 -42.689 -81.320  0.00  0.00    +0.000 A 
ATOM     21  C   UNL     1     -53.096 -42.849 -81.229  0.00  0.00    +0.000 A 
ATOM     22  N   UNL     1     -53.660 -42.754 -82.446  0.00  0.00    +0.000 NA
ATOM     23  O   UNL     1     -52.635 -42.486 -83.329  0.00  0.00    +0.000 OA
ENDBRANCH  17  21
ENDBRANCH  15  17
ENDBRANCH   1  15
BRANCH  13  24
ATOM     24  C   UNL     1     -53.433 -41.198 -76.646  0.00  0.00    +0.000 C 
ATOM     25  O   UNL     1     -53.548 -39.985 -76.669  0.00  0.00    +0.000 OA
BRANCH  24  26
ATOM     26  C   UNL     1     -52.100 -41.825 -76.566  0.00  0.00    +0.000 C 
ATOM     27  C   UNL     1     -50.922 -41.005 -76.108  0.00  0.00    +0.000 C 
ATOM     28  C   UNL     1     -51.002 -41.456 -77.535  0.00  0.00    +0.000 C 
ENDBRANCH  24  26
ENDBRANCH  13  24
TORSDOF 5
ENDMDL
MODEL 7
REMARK VINA RESULT:    -6.133      2.144      2.617
REMARK INTER + INTRA:          -8.865
REMARK INTER:                  -8.246
REMARK INTRA:                  -0.619
REMARK UNBOUND:                -0.940
REMARK  Name = 
REMARK  6 active torsions:
REMARK  status: ('A' for Active; 'I' for Inactive)
REMARK    1  A    between atoms: C_1  and  C_2
REMARK    2  A    between atoms: C_4  and  C_5
REMARK    3  A    between atoms: C_5  and  S_6
REMARK    4  A    between atoms: S_6  and  C_8
REMARK    5  A    between atoms: C_20  and  C_21
REMARK    6  A    between atoms: C_21  and  C_23
REMARK                            x       y       z     vdW  Elec       q    Type
REMARK                         _______ _______ _______ _____ _____    ______ ____
ROOT
ATOM      1  C   UNL     1     -55.815 -41.859 -62.904  0.00  0.00    +0.000 A 
ATOM      2  N   UNL     1     -55.137 -43.081 -62.729  0.00  0.00    +0.000 N 
ATOM      3  C   UNL     1     -53.746 -43.183 -63.005  0.00  0.00    +0.000 A 
ATOM      4  C   UNL     1     -52.936 -44.218 -62.500  0.00  0.00    +0.000 A 
ATOM      5 BR   UNL     1     -53.616 -45.470 -61.248  0.00  0.00    +0.000 Br
ATOM      6  C   UNL     1     -51.594 -44.343 -62.886  0.00  0.00    +0.000 A 
ATOM      7  C   UNL     1     -51.037 -43.410 -63.768  0.00  0.00    +0.000 A 
ATOM      8  C   UNL     1     -51.820 -42.375 -64.280  0.00  0.00    +0.000 A 
ATOM      9 CL   UNL     1     -51.021 -41.235 -65.303  0.00  0.00    +0.000 Cl
ATOM     10  C   UNL     1     -53.171 -42.281 -63.914  0.00  0.00    +0.000 A 
ATOM     11  C   UNL     1     -54.096 -41.275 -64.470  0.00  0.00    +0.000 A 
ATOM     12  O   UNL     1     -53.959 -40.830 -65.603  0.00  0.00    +0.000 OA
ATOM     13  C   UNL     1     -55.270 -40.861 -63.634  0.00  0.00    +0.000 A 
ATOM     14  H   UNL     1     -55.425 -43.566 -61.868  0.00  0.00    +0.000 HD
ENDROOT
BRANCH   1  15
ATOM     15  S   UNL     1     -57.177 -41.644 -61.729  0.00  0.00    +0.000 S 
ATOM     16  O   UNL     1     -56.962 -42.731 -60.711  0.00  0.00    +0.000 OA
BRANCH  15  17
ATOM     17  C   UNL     1     -58.756 -41.984 -62.562  0.00  0.00    +0.000 C 
BRANCH  17  21
ATOM     18  C   UNL     1     -63.088 -39.318 -61.974  0.00  0.00    +0.000 C 
ATOM     19  C   UNL     1     -61.905 -40.199 -61.974  0.00  0.00    +0.000 A 
ATOM     20  C   UNL     1     -60.819 -40.359 -62.802  0.00  0.00    +0.000 A 
ATOM     21  C   UNL     1     -60.015 -41.322 -62.152  0.00  0.00    +0.000 A 
ATOM     22  N   UNL     1     -60.620 -41.764 -61.035  0.00  0.00    +0.000 NA
ATOM     23  O   UNL     1     -61.800 -41.057 -60.928  0.00  0.00    +0.000 OA
ENDBRANCH  17  21
ENDBRANCH  15  17
ENDBRANCH   1  15
BRANCH  13  24
ATOM     24  C   UNL     1     -55.514 -39.390 -63.630  0.00  0.00    +0.000 C 
ATOM     25  O   UNL     1     -56.636 -38.948 -63.810  0.00  0.00    +0.000 OA
BRANCH  24  26
ATOM     26  C   UNL     1     -54.384 -38.483 -63.356  0.00  0.00    +0.000 C 
ATOM     27  C   UNL     1     -54.638 -37.003 -63.220  0.00  0.00    +0.000 C 
ATOM     28  C   UNL     1     -53.881 -37.520 -64.406  0.00  0.00    +0.000 C 
ENDBRANCH  24  26
ENDBRANCH  13  24
TORSDOF 5
ENDMDL
MODEL 8
REMARK VINA RESULT:    -6.088      3.345      5.676
REMARK INTER + INTRA:          -8.807
REMARK INTER:                  -7.752
REMARK INTRA:                  -1.055
REMARK UNBOUND:                -0.940
REMARK  Name = 
REMARK  6 active torsions:
REMARK  status: ('A' for Active; 'I' for Inactive)
REMARK    1  A    between atoms: C_1  and  C_2
REMARK    2  A    between atoms: C_4  and  C_5
REMARK    3  A    between atoms: C_5  and  S_6
REMARK    4  A    between atoms: S_6  and  C_8
REMARK    5  A    between atoms: C_20  and  C_21
REMARK    6  A    between atoms: C_21  and  C_23
REMARK                            x       y       z     vdW  Elec       q    Type
REMARK                         _______ _______ _______ _____ _____    ______ ____
ROOT
ATOM      1  C   UNL     1     -57.563 -40.938 -62.904  0.00  0.00    +0.000 A 
ATOM      2  N   UNL     1     -57.121 -39.649 -62.550  0.00  0.00    +0.000 N 
ATOM      3  C   UNL     1     -56.004 -39.062 -63.205  0.00  0.00    +0.000 A 
ATOM      4  C   UNL     1     -55.747 -37.678 -63.195  0.00  0.00    +0.000 A 
ATOM      5 BR   UNL     1     -56.991 -36.458 -62.444  0.00  0.00    +0.000 Br
ATOM      6  C   UNL     1     -54.577 -37.153 -63.759  0.00  0.00    +0.000 A 
ATOM      7  C   UNL     1     -53.656 -38.013 -64.369  0.00  0.00    +0.000 A 
ATOM      8  C   UNL     1     -53.889 -39.388 -64.393  0.00  0.00    +0.000 A 
ATOM      9 CL   UNL     1     -52.730 -40.354 -65.233  0.00  0.00    +0.000 Cl
ATOM     10  C   UNL     1     -55.048 -39.905 -63.793  0.00  0.00    +0.000 A 
ATOM     11  C   UNL     1     -55.337 -41.348 -63.694  0.00  0.00    +0.000 A 
ATOM     12  O   UNL     1     -54.443 -42.181 -63.614  0.00  0.00    +0.000 OA
ATOM     13  C   UNL     1     -56.773 -41.774 -63.613  0.00  0.00    +0.000 A 
ATOM     14  H   UNL     1     -57.903 -38.997 -62.399  0.00  0.00    +0.000 HD
ENDROOT
BRANCH   1  15
ATOM     15  S   UNL     1     -59.354 -41.137 -62.713  0.00  0.00    +0.000 S 
ATOM     16  O   UNL     1     -59.777 -39.931 -61.919  0.00  0.00    +0.000 OA
BRANCH  15  17
ATOM     17  C   UNL     1     -59.697 -42.604 -61.697  0.00  0.00    +0.000 C 
BRANCH  17  21
ATOM     18  C   UNL     1     -57.464 -42.450 -57.092  0.00  0.00    +0.000 C 
ATOM     19  C   UNL     1     -58.284 -42.551 -58.314  0.00  0.00    +0.000 A 
ATOM     20  C   UNL     1     -58.074 -42.277 -59.645  0.00  0.00    +0.000 A 
ATOM     21  C   UNL     1     -59.260 -42.698 -60.285  0.00  0.00    +0.000 A 
ATOM     22  N   UNL     1     -60.156 -43.132 -59.381  0.00  0.00    +0.000 NA
ATOM     23  O   UNL     1     -59.539 -43.040 -58.151  0.00  0.00    +0.000 OA
ENDBRANCH  17  21
ENDBRANCH  15  17
ENDBRANCH   1  15
BRANCH  13  24
ATOM     24  C   UNL     1     -57.100 -42.947 -64.473  0.00  0.00    +0.000 C 
ATOM     25  O   UNL     1     -57.382 -44.022 -63.973  0.00  0.00    +0.000 OA
BRANCH  24  26
ATOM     26  C   UNL     1     -57.122 -42.772 -65.937  0.00  0.00    +0.000 C 
ATOM     27  C   UNL     1     -57.590 -41.463 -66.520  0.00  0.00    +0.000 C 
ATOM     28  C   UNL     1     -58.425 -42.695 -66.697  0.00  0.00    +0.000 C 
ENDBRANCH  24  26
ENDBRANCH  13  24
TORSDOF 5
ENDMDL
MODEL 9
REMARK VINA RESULT:    -5.941      3.948      5.688
REMARK INTER + INTRA:          -8.617
REMARK INTER:                  -7.820
REMARK INTRA:                  -0.797
REMARK UNBOUND:                -0.940
REMARK  Name = 
REMARK  6 active torsions:
REMARK  status: ('A' for Active; 'I' for Inactive)
REMARK    1  A    between atoms: C_1  and  C_2
REMARK    2  A    between atoms: C_4  and  C_5
REMARK    3  A    between atoms: C_5  and  S_6
REMARK    4  A    between atoms: S_6  and  C_8
REMARK    5  A    between atoms: C_20  and  C_21
REMARK    6  A    between atoms: C_21  and  C_23
REMARK                            x       y       z     vdW  Elec       q    Type
REMARK                         _______ _______ _______ _____ _____    ______ ____
ROOT
ATOM      1  C   UNL     1     -56.690 -37.826 -62.514  0.00  0.00    +0.000 A 
ATOM      2  N   UNL     1     -56.990 -39.069 -63.103  0.00  0.00    +0.000 N 
ATOM      3  C   UNL     1     -55.960 -39.866 -63.674  0.00  0.00    +0.000 A 
ATOM      4  C   UNL     1     -56.102 -41.245 -63.919  0.00  0.00    +0.000 A 
ATOM      5 BR   UNL     1     -57.638 -42.190 -63.331  0.00  0.00    +0.000 Br
ATOM      6  C   UNL     1     -55.103 -41.971 -64.584  0.00  0.00    +0.000 A 
ATOM      7  C   UNL     1     -53.931 -41.323 -64.989  0.00  0.00    +0.000 A 
ATOM      8  C   UNL     1     -53.766 -39.957 -64.755  0.00  0.00    +0.000 A 
ATOM      9 CL   UNL     1     -52.255 -39.269 -65.229  0.00  0.00    +0.000 Cl
ATOM     10  C   UNL     1     -54.788 -39.235 -64.121  0.00  0.00    +0.000 A 
ATOM     11  C   UNL     1     -54.741 -37.776 -63.909  0.00  0.00    +0.000 A 
ATOM     12  O   UNL     1     -54.147 -37.031 -64.679  0.00  0.00    +0.000 OA
ATOM     13  C   UNL     1     -55.513 -37.207 -62.756  0.00  0.00    +0.000 A 
ATOM     14  H   UNL     1     -57.672 -39.607 -62.552  0.00  0.00    +0.000 HD
ENDROOT
BRANCH   1  15
ATOM     15  S   UNL     1     -57.792 -37.427 -61.132  0.00  0.00    +0.000 S 
ATOM     16  O   UNL     1     -57.983 -38.739 -60.421  0.00  0.00    +0.000 OA
BRANCH  15  17
ATOM     17  C   UNL     1     -59.413 -36.917 -61.776  0.00  0.00    +0.000 C 
BRANCH  17  21
ATOM     18  C   UNL     1     -59.434 -32.095 -63.498  0.00  0.00    +0.000 C 
ATOM     19  C   UNL     1     -59.640 -33.477 -63.027  0.00  0.00    +0.000 A 
ATOM     20  C   UNL     1     -58.807 -34.509 -62.665  0.00  0.00    +0.000 A 
ATOM     21  C   UNL     1     -59.677 -35.530 -62.222  0.00  0.00    +0.000 A 
ATOM     22  N   UNL     1     -60.959 -35.155 -62.376  0.00  0.00    +0.000 NA
ATOM     23  O   UNL     1     -60.930 -33.871 -62.879  0.00  0.00    +0.000 OA
ENDBRANCH  17  21
ENDBRANCH  15  17
ENDBRANCH   1  15
BRANCH  13  24
ATOM     24  C   UNL     1     -54.764 -36.177 -61.982  0.00  0.00    +0.000 C 
ATOM     25  O   UNL     1     -54.099 -36.494 -61.011  0.00  0.00    +0.000 OA
BRANCH  24  26
ATOM     26  C   UNL     1     -54.802 -34.775 -62.440  0.00  0.00    +0.000 C 
ATOM     27  C   UNL     1     -53.967 -33.741 -61.731  0.00  0.00    +0.000 C 
ATOM     28  C   UNL     1     -55.460 -33.699 -61.610  0.00  0.00    +0.000 C 
ENDBRANCH  24  26
ENDBRANCH  13  24
TORSDOF 5
ENDMDL
MODEL 10
REMARK VINA RESULT:    -5.921     13.152     15.457
REMARK INTER + INTRA:          -8.591
REMARK INTER:                  -7.333
REMARK INTRA:                  -1.258
REMARK UNBOUND:                -0.940
REMARK  Name = 
REMARK  6 active torsions:
REMARK  status: ('A' for Active; 'I' for Inactive)
REMARK    1  A    between atoms: C_1  and  C_2
REMARK    2  A    between atoms: C_4  and  C_5
REMARK    3  A    between atoms: C_5  and  S_6
REMARK    4  A    between atoms: S_6  and  C_8
REMARK    5  A    between atoms: C_20  and  C_21
REMARK    6  A    between atoms: C_21  and  C_23
REMARK                            x       y       z     vdW  Elec       q    Type
REMARK                         _______ _______ _______ _____ _____    ______ ____
ROOT
ATOM      1  C   UNL     1     -55.251 -42.626 -79.743  0.00  0.00    +0.000 A 
ATOM      2  N   UNL     1     -55.222 -43.334 -78.526  0.00  0.00    +0.000 N 
ATOM      3  C   UNL     1     -54.291 -42.988 -77.508  0.00  0.00    +0.000 A 
ATOM      4  C   UNL     1     -54.450 -43.365 -76.162  0.00  0.00    +0.000 A 
ATOM      5 BR   UNL     1     -56.033 -44.225 -75.566  0.00  0.00    +0.000 Br
ATOM      6  C   UNL     1     -53.455 -43.098 -75.211  0.00  0.00    +0.000 A 
ATOM      7  C   UNL     1     -52.293 -42.419 -75.597  0.00  0.00    +0.000 A 
ATOM      8  C   UNL     1     -52.114 -42.033 -76.926  0.00  0.00    +0.000 A 
ATOM      9 CL   UNL     1     -50.682 -41.139 -77.285  0.00  0.00    +0.000 Cl
ATOM     10  C   UNL     1     -53.102 -42.339 -77.875  0.00  0.00    +0.000 A 
ATOM     11  C   UNL     1     -52.963 -42.048 -79.315  0.00  0.00    +0.000 A 
ATOM     12  O   UNL     1     -51.871 -42.036 -79.868  0.00  0.00    +0.000 OA
ATOM     13  C   UNL     1     -54.215 -41.841 -80.114  0.00  0.00    +0.000 A 
ATOM     14  H   UNL     1     -56.167 -43.538 -78.172  0.00  0.00    +0.000 HD
ENDROOT
BRANCH   1  15
ATOM     15  S   UNL     1     -56.914 -42.534 -80.456  0.00  0.00    +0.000 S 
ATOM     16  O   UNL     1     -57.758 -41.958 -79.352  0.00  0.00    +0.000 OA
BRANCH  15  17
ATOM     17  C   UNL     1     -57.524 -44.212 -80.789  0.00  0.00    +0.000 C 
BRANCH  17  21
ATOM     18  C   UNL     1     -60.585 -46.988 -77.765  0.00  0.00    +0.000 C 
ATOM     19  C   UNL     1     -59.545 -46.259 -78.513  0.00  0.00    +0.000 A 
ATOM     20  C   UNL     1     -59.531 -45.494 -79.656  0.00  0.00    +0.000 A 
ATOM     21  C   UNL     1     -58.205 -45.018 -79.749  0.00  0.00    +0.000 A 
ATOM     22  N   UNL     1     -57.451 -45.526 -78.759  0.00  0.00    +0.000 NA
ATOM     23  O   UNL     1     -58.294 -46.300 -77.988  0.00  0.00    +0.000 OA
ENDBRANCH  17  21
ENDBRANCH  15  17
ENDBRANCH   1  15
BRANCH  13  24
ATOM     24  C   UNL     1     -54.141 -40.688 -81.057  0.00  0.00    +0.000 C 
ATOM     25  O   UNL     1     -54.083 -39.546 -80.636  0.00  0.00    +0.000 OA
BRANCH  24  26
ATOM     26  C   UNL     1     -54.090 -40.957 -82.507  0.00  0.00    +0.000 C 
ATOM     27  C   UNL     1     -53.650 -42.314 -82.994  0.00  0.00    +0.000 C 
ATOM     28  C   UNL     1     -52.773 -41.121 -83.227  0.00  0.00    +0.000 C 
ENDBRANCH  24  26
ENDBRANCH  13  24
TORSDOF 5
ENDMDL
MODEL 11
REMARK VINA RESULT:    -5.840     13.035     15.517
REMARK INTER + INTRA:          -8.487
REMARK INTER:                  -7.341
REMARK INTRA:                  -1.146
REMARK UNBOUND:                -0.940
REMARK  Name = 
REMARK  6 active torsions:
REMARK  status: ('A' for Active; 'I' for Inactive)
REMARK    1  A    between atoms: C_1  and  C_2
REMARK    2  A    between atoms: C_4  and  C_5
REMARK    3  A    between atoms: C_5  and  S_6
REMARK    4  A    between atoms: S_6  and  C_8
REMARK    5  A    between atoms: C_20  and  C_21
REMARK    6  A    between atoms: C_21  and  C_23
REMARK                            x       y       z     vdW  Elec       q    Type
REMARK                         _______ _______ _______ _____ _____    ______ ____
ROOT
ATOM      1  C   UNL     1     -57.336 -41.529 -78.538  0.00  0.00    +0.000 A 
ATOM      2  N   UNL     1     -56.815 -41.813 -79.816  0.00  0.00    +0.000 N 
ATOM      3  C   UNL     1     -55.422 -42.032 -79.996  0.00  0.00    +0.000 A 
ATOM      4  C   UNL     1     -54.887 -42.689 -81.121  0.00  0.00    +0.000 A 
ATOM      5 BR   UNL     1     -56.017 -43.499 -82.411  0.00  0.00    +0.000 Br
ATOM      6  C   UNL     1     -53.502 -42.786 -81.313  0.00  0.00    +0.000 A 
ATOM      7  C   UNL     1     -52.631 -42.247 -80.360  0.00  0.00    +0.000 A 
ATOM      8  C   UNL     1     -53.137 -41.594 -79.236  0.00  0.00    +0.000 A 
ATOM      9 CL   UNL     1     -51.982 -41.028 -78.084  0.00  0.00    +0.000 Cl
ATOM     10  C   UNL     1     -54.525 -41.471 -79.073  0.00  0.00    +0.000 A 
ATOM     11  C   UNL     1     -55.151 -40.725 -77.964  0.00  0.00    +0.000 A 
ATOM     12  O   UNL     1     -54.603 -39.759 -77.447  0.00  0.00    +0.000 OA
ATOM     13  C   UNL     1     -56.527 -41.133 -77.530  0.00  0.00    +0.000 A 
ATOM     14  H   UNL     1     -57.409 -42.469 -80.341  0.00  0.00    +0.000 HD
ENDROOT
BRANCH   1  15
ATOM     15  S   UNL     1     -59.016 -42.168 -78.313  0.00  0.00    +0.000 S 
ATOM     16  O   UNL     1     -58.813 -43.589 -77.862  0.00  0.00    +0.000 OA
BRANCH  15  17
ATOM     17  C   UNL     1     -59.864 -42.223 -79.919  0.00  0.00    +0.000 C 
BRANCH  17  21
ATOM     18  C   UNL     1     -61.523 -37.745 -81.767  0.00  0.00    +0.000 C 
ATOM     19  C   UNL     1     -60.900 -39.028 -81.390  0.00  0.00    +0.000 A 
ATOM     20  C   UNL     1     -61.071 -39.920 -80.358  0.00  0.00    +0.000 A 
ATOM     21  C   UNL     1     -60.204 -40.991 -80.668  0.00  0.00    +0.000 A 
ATOM     22  N   UNL     1     -59.503 -40.723 -81.783  0.00  0.00    +0.000 NA
ATOM     23  O   UNL     1     -59.943 -39.495 -82.231  0.00  0.00    +0.000 OA
ENDBRANCH  17  21
ENDBRANCH  15  17
ENDBRANCH   1  15
BRANCH  13  24
ATOM     24  C   UNL     1     -56.697 -41.191 -76.050  0.00  0.00    +0.000 C 
ATOM     25  O   UNL     1     -57.427 -40.401 -75.479  0.00  0.00    +0.000 OA
BRANCH  24  26
ATOM     26  C   UNL     1     -56.002 -42.251 -75.296  0.00  0.00    +0.000 C 
ATOM     27  C   UNL     1     -55.863 -43.624 -75.904  0.00  0.00    +0.000 C 
ATOM     28  C   UNL     1     -56.757 -43.424 -74.718  0.00  0.00    +0.000 C 
ENDBRANCH  24  26
ENDBRANCH  13  24
TORSDOF 5
ENDMDL
MODEL 12
REMARK VINA RESULT:    -5.754     12.630     15.067
REMARK INTER + INTRA:          -8.376
REMARK INTER:                  -7.582
REMARK INTRA:                  -0.794
REMARK UNBOUND:                -0.940
REMARK  Name = 
REMARK  6 active torsions:
REMARK  status: ('A' for Active; 'I' for Inactive)
REMARK    1  A    between atoms: C_1  and  C_2
REMARK    2  A    between atoms: C_4  and  C_5
REMARK    3  A    between atoms: C_5  and  S_6
REMARK    4  A    between atoms: S_6  and  C_8
REMARK    5  A    between atoms: C_20  and  C_21
REMARK    6  A    between atoms: C_21  and  C_23
REMARK                            x       y       z     vdW  Elec       q    Type
REMARK                         _______ _______ _______ _____ _____    ______ ____
ROOT
ATOM      1  C   UNL     1     -56.315 -43.337 -78.318  0.00  0.00    +0.000 A 
ATOM      2  N   UNL     1     -56.419 -42.726 -79.583  0.00  0.00    +0.000 N 
ATOM      3  C   UNL     1     -55.575 -41.636 -79.931  0.00  0.00    +0.000 A 
ATOM      4  C   UNL     1     -55.344 -41.239 -81.262  0.00  0.00    +0.000 A 
ATOM      5 BR   UNL     1     -56.011 -42.257 -82.717  0.00  0.00    +0.000 Br
ATOM      6  C   UNL     1     -54.594 -40.092 -81.556  0.00  0.00    +0.000 A 
ATOM      7  C   UNL     1     -54.040 -39.341 -80.514  0.00  0.00    +0.000 A 
ATOM      8  C   UNL     1     -54.253 -39.716 -79.187  0.00  0.00    +0.000 A 
ATOM      9 CL   UNL     1     -53.467 -38.766 -77.979  0.00  0.00    +0.000 Cl
ATOM     10  C   UNL     1     -55.036 -40.846 -78.904  0.00  0.00    +0.000 A 
ATOM     11  C   UNL     1     -55.387 -41.269 -77.535  0.00  0.00    +0.000 A 
ATOM     12  O   UNL     1     -55.509 -40.463 -76.622  0.00  0.00    +0.000 OA
ATOM     13  C   UNL     1     -55.672 -42.723 -77.300  0.00  0.00    +0.000 A 
ATOM     14  H   UNL     1     -56.541 -43.415 -80.338  0.00  0.00    +0.000 HD
ENDROOT
BRANCH   1  15
ATOM     15  S   UNL     1     -56.707 -45.106 -78.364  0.00  0.00    +0.000 S 
ATOM     16  O   UNL     1     -56.138 -45.576 -79.675  0.00  0.00    +0.000 OA
BRANCH  15  17
ATOM     17  C   UNL     1     -58.508 -45.326 -78.442  0.00  0.00    +0.000 C 
BRANCH  17  21
ATOM     18  C   UNL     1     -59.887 -50.140 -77.373  0.00  0.00    +0.000 C 
ATOM     19  C   UNL     1     -59.685 -48.700 -77.614  0.00  0.00    +0.000 A 
ATOM     20  C   UNL     1     -58.619 -47.925 -78.008  0.00  0.00    +0.000 A 
ATOM     21  C   UNL     1     -59.153 -46.623 -78.129  0.00  0.00    +0.000 A 
ATOM     22  N   UNL     1     -60.445 -46.606 -77.761  0.00  0.00    +0.000 NA
ATOM     23  O   UNL     1     -60.773 -47.908 -77.441  0.00  0.00    +0.000 OA
ENDBRANCH  17  21
ENDBRANCH  15  17
ENDBRANCH   1  15
BRANCH  13  24
ATOM     24  C   UNL     1     -55.042 -43.265 -76.062  0.00  0.00    +0.000 C 
ATOM     25  O   UNL     1     -55.711 -43.465 -75.063  0.00  0.00    +0.000 OA
BRANCH  24  26
ATOM     26  C   UNL     1     -53.605 -43.599 -76.083  0.00  0.00    +0.000 C 
ATOM     27  C   UNL     1     -52.883 -43.850 -74.784  0.00  0.00    +0.000 C 
ATOM     28  C   UNL     1     -52.567 -42.623 -75.584  0.00  0.00    +0.000 C 
ENDBRANCH  24  26
ENDBRANCH  13  24
TORSDOF 5
ENDMDL
MODEL 13
REMARK VINA RESULT:    -5.683     12.075     14.240
REMARK INTER + INTRA:          -8.283
REMARK INTER:                  -7.796
REMARK INTRA:                  -0.488
REMARK UNBOUND:                -0.940
REMARK  Name = 
REMARK  6 active torsions:
REMARK  status: ('A' for Active; 'I' for Inactive)
REMARK    1  A    between atoms: C_1  and  C_2
REMARK    2  A    between atoms: C_4  and  C_5
REMARK    3  A    between atoms: C_5  and  S_6
REMARK    4  A    between atoms: S_6  and  C_8
REMARK    5  A    between atoms: C_20  and  C_21
REMARK    6  A    between atoms: C_21  and  C_23
REMARK                            x       y       z     vdW  Elec       q    Type
REMARK                         _______ _______ _______ _____ _____    ______ ____
ROOT
ATOM      1  C   UNL     1     -54.731 -43.019 -77.562  0.00  0.00    +0.000 A 
ATOM      2  N   UNL     1     -55.235 -43.937 -78.503  0.00  0.00    +0.000 N 
ATOM      3  C   UNL     1     -54.697 -43.994 -79.818  0.00  0.00    +0.000 A 
ATOM      4  C   UNL     1     -54.860 -45.105 -80.667  0.00  0.00    +0.000 A 
ATOM      5 BR   UNL     1     -55.669 -46.703 -80.043  0.00  0.00    +0.000 Br
ATOM      6  C   UNL     1     -54.409 -45.076 -81.994  0.00  0.00    +0.000 A 
ATOM      7  C   UNL     1     -53.761 -43.935 -82.480  0.00  0.00    +0.000 A 
ATOM      8  C   UNL     1     -53.586 -42.822 -81.657  0.00  0.00    +0.000 A 
ATOM      9 CL   UNL     1     -52.710 -41.494 -82.328  0.00  0.00    +0.000 Cl
ATOM     10  C   UNL     1     -54.073 -42.851 -80.342  0.00  0.00    +0.000 A 
ATOM     11  C   UNL     1     -54.011 -41.694 -79.427  0.00  0.00    +0.000 A 
ATOM     12  O   UNL     1     -54.049 -40.542 -79.840  0.00  0.00    +0.000 OA
ATOM     13  C   UNL     1     -53.979 -41.966 -77.952  0.00  0.00    +0.000 A 
ATOM     14  H   UNL     1     -55.412 -44.862 -78.088  0.00  0.00    +0.000 HD
ENDROOT
BRANCH   1  15
ATOM     15  S   UNL     1     -54.813 -43.646 -75.864  0.00  0.00    +0.000 S 
ATOM     16  O   UNL     1     -56.010 -44.556 -75.864  0.00  0.00    +0.000 OA
BRANCH  15  17
ATOM     17  C   UNL     1     -55.173 -42.274 -74.727  0.00  0.00    +0.000 C 
BRANCH  17  21
ATOM     18  C   UNL     1     -59.649 -41.625 -72.326  0.00  0.00    +0.000 C 
ATOM     19  C   UNL     1     -58.435 -41.675 -73.162  0.00  0.00    +0.000 A 
ATOM     20  C   UNL     1     -57.202 -42.271 -73.042  0.00  0.00    +0.000 A 
ATOM     21  C   UNL     1     -56.549 -41.984 -74.262  0.00  0.00    +0.000 A 
ATOM     22  N   UNL     1     -57.320 -41.202 -75.037  0.00  0.00    +0.000 NA
ATOM     23  O   UNL     1     -58.498 -41.013 -74.345  0.00  0.00    +0.000 OA
ENDBRANCH  17  21
ENDBRANCH  15  17
ENDBRANCH   1  15
BRANCH  13  24
ATOM     24  C   UNL     1     -52.990 -41.132 -77.211  0.00  0.00    +0.000 C 
ATOM     25  O   UNL     1     -53.312 -40.050 -76.752  0.00  0.00    +0.000 OA
BRANCH  24  26
ATOM     26  C   UNL     1     -51.629 -41.661 -77.001  0.00  0.00    +0.000 C 
ATOM     27  C   UNL     1     -51.119 -41.858 -75.596  0.00  0.00    +0.000 C 
ATOM     28  C   UNL     1     -50.524 -40.786 -76.459  0.00  0.00    +0.000 C 
ENDBRANCH  24  26
ENDBRANCH  13  24
TORSDOF 5
ENDMDL
MODEL 14
REMARK VINA RESULT:    -5.655     12.373     15.338
REMARK INTER + INTRA:          -8.248
REMARK INTER:                  -7.152
REMARK INTRA:                  -1.095
REMARK UNBOUND:                -0.940
REMARK  Name = 
REMARK  6 active torsions:
REMARK  status: ('A' for Active; 'I' for Inactive)
REMARK    1  A    between atoms: C_1  and  C_2
REMARK    2  A    between atoms: C_4  and  C_5
REMARK    3  A    between atoms: C_5  and  S_6
REMARK    4  A    between atoms: S_6  and  C_8
REMARK    5  A    between atoms: C_20  and  C_21
REMARK    6  A    between atoms: C_21  and  C_23
REMARK                            x       y       z     vdW  Elec       q    Type
REMARK                         _______ _______ _______ _____ _____    ______ ____
ROOT
ATOM      1  C   UNL     1     -57.672 -42.020 -77.823  0.00  0.00    +0.000 A 
ATOM      2  N   UNL     1     -56.279 -41.891 -77.982  0.00  0.00    +0.000 N 
ATOM      3  C   UNL     1     -55.731 -41.402 -79.199  0.00  0.00    +0.000 A 
ATOM      4  C   UNL     1     -54.426 -40.885 -79.302  0.00  0.00    +0.000 A 
ATOM      5 BR   UNL     1     -53.349 -40.633 -77.760  0.00  0.00    +0.000 Br
ATOM      6  C   UNL     1     -53.887 -40.516 -80.542  0.00  0.00    +0.000 A 
ATOM      7  C   UNL     1     -54.665 -40.638 -81.699  0.00  0.00    +0.000 A 
ATOM      8  C   UNL     1     -55.962 -41.146 -81.622  0.00  0.00    +0.000 A 
ATOM      9 CL   UNL     1     -56.864 -41.188 -83.094  0.00  0.00    +0.000 Cl
ATOM     10  C   UNL     1     -56.477 -41.545 -80.380  0.00  0.00    +0.000 A 
ATOM     11  C   UNL     1     -57.803 -42.172 -80.213  0.00  0.00    +0.000 A 
ATOM     12  O   UNL     1     -58.305 -42.862 -81.091  0.00  0.00    +0.000 OA
ATOM     13  C   UNL     1     -58.497 -42.008 -78.893  0.00  0.00    +0.000 A 
ATOM     14  H   UNL     1     -55.825 -41.508 -77.141  0.00  0.00    +0.000 HD
ENDROOT
BRANCH   1  15
ATOM     15  S   UNL     1     -58.207 -41.747 -76.114  0.00  0.00    +0.000 S 
ATOM     16  O   UNL     1     -57.677 -40.380 -75.775  0.00  0.00    +0.000 OA
BRANCH  15  17
ATOM     17  C   UNL     1     -57.378 -42.938 -75.021  0.00  0.00    +0.000 C 
BRANCH  17  21
ATOM     18  C   UNL     1     -52.288 -43.496 -74.999  0.00  0.00    +0.000 C 
ATOM     19  C   UNL     1     -53.759 -43.528 -75.097  0.00  0.00    +0.000 A 
ATOM     20  C   UNL     1     -54.775 -42.708 -74.665  0.00  0.00    +0.000 A 
ATOM     21  C   UNL     1     -55.949 -43.292 -75.189  0.00  0.00    +0.000 A 
ATOM     22  N   UNL     1     -55.660 -44.434 -75.837  0.00  0.00    +0.000 NA
ATOM     23  O   UNL     1     -54.289 -44.575 -75.778  0.00  0.00    +0.000 OA
ENDBRANCH  17  21
ENDBRANCH  15  17
ENDBRANCH   1  15
BRANCH  13  24
ATOM     24  C   UNL     1     -59.949 -41.689 -79.016  0.00  0.00    +0.000 C 
ATOM     25  O   UNL     1     -60.791 -42.539 -78.783  0.00  0.00    +0.000 OA
BRANCH  24  26
ATOM     26  C   UNL     1     -60.347 -40.315 -79.376  0.00  0.00    +0.000 C 
ATOM     27  C   UNL     1     -61.793 -40.019 -79.681  0.00  0.00    +0.000 C 
ATOM     28  C   UNL     1     -60.778 -39.968 -80.781  0.00  0.00    +0.000 C 
ENDBRANCH  24  26
ENDBRANCH  13  24
TORSDOF 5
ENDMDL
MODEL 15
REMARK VINA RESULT:    -5.487     12.635     15.335
REMARK INTER + INTRA:          -8.031
REMARK INTER:                  -6.831
REMARK INTRA:                  -1.200
REMARK UNBOUND:                -0.940
REMARK  Name = 
REMARK  6 active torsions:
REMARK  status: ('A' for Active; 'I' for Inactive)
REMARK    1  A    between atoms: C_1  and  C_2
REMARK    2  A    between atoms: C_4  and  C_5
REMARK    3  A    between atoms: C_5  and  S_6
REMARK    4  A    between atoms: S_6  and  C_8
REMARK    5  A    between atoms: C_20  and  C_21
REMARK    6  A    between atoms: C_21  and  C_23
REMARK                            x       y       z     vdW  Elec       q    Type
REMARK                         _______ _______ _______ _____ _____    ______ ____
ROOT
ATOM      1  C   UNL     1     -56.947 -42.177 -78.707  0.00  0.00    +0.000 A 
ATOM      2  N   UNL     1     -55.672 -42.183 -78.108  0.00  0.00    +0.000 N 
ATOM      3  C   UNL     1     -54.497 -42.157 -78.909  0.00  0.00    +0.000 A 
ATOM      4  C   UNL     1     -53.238 -41.774 -78.411  0.00  0.00    +0.000 A 
ATOM      5 BR   UNL     1     -53.048 -41.082 -76.655  0.00  0.00    +0.000 Br
ATOM      6  C   UNL     1     -52.085 -41.868 -79.204  0.00  0.00    +0.000 A 
ATOM      7  C   UNL     1     -52.188 -42.325 -80.523  0.00  0.00    +0.000 A 
ATOM      8  C   UNL     1     -53.426 -42.709 -81.039  0.00  0.00    +0.000 A 
ATOM      9 CL   UNL     1     -53.458 -43.189 -82.697  0.00  0.00    +0.000 Cl
ATOM     10  C   UNL     1     -54.566 -42.644 -80.224  0.00  0.00    +0.000 A 
ATOM     11  C   UNL     1     -55.900 -43.108 -80.653  0.00  0.00    +0.000 A 
ATOM     12  O   UNL     1     -56.037 -44.022 -81.455  0.00  0.00    +0.000 OA
ATOM     13  C   UNL     1     -57.103 -42.477 -80.015  0.00  0.00    +0.000 A 
ATOM     14  H   UNL     1     -55.626 -41.568 -77.285  0.00  0.00    +0.000 HD
ENDROOT
BRANCH   1  15
ATOM     15  S   UNL     1     -58.187 -41.324 -77.697  0.00  0.00    +0.000 S 
ATOM     16  O   UNL     1     -57.507 -40.048 -77.279  0.00  0.00    +0.000 OA
BRANCH  15  17
ATOM     17  C   UNL     1     -58.510 -42.287 -76.191  0.00  0.00    +0.000 C 
BRANCH  17  21
ATOM     18  C   UNL     1     -56.378 -41.739 -71.568  0.00  0.00    +0.000 C 
ATOM     19  C   UNL     1     -56.803 -41.973 -72.961  0.00  0.00    +0.000 A 
ATOM     20  C   UNL     1     -57.995 -41.871 -73.638  0.00  0.00    +0.000 A 
ATOM     21  C   UNL     1     -57.665 -42.156 -74.982  0.00  0.00    +0.000 A 
ATOM     22  N   UNL     1     -56.365 -42.480 -75.089  0.00  0.00    +0.000 NA
ATOM     23  O   UNL     1     -55.830 -42.363 -73.823  0.00  0.00    +0.000 OA
ENDBRANCH  17  21
ENDBRANCH  15  17
ENDBRANCH   1  15
BRANCH  13  24
ATOM     24  C   UNL     1     -58.186 -42.140 -80.982  0.00  0.00    +0.000 C 
ATOM     25  O   UNL     1     -59.271 -42.690 -80.913  0.00  0.00    +0.000 OA
BRANCH  24  26
ATOM     26  C   UNL     1     -57.937 -41.096 -81.993  0.00  0.00    +0.000 C 
ATOM     27  C   UNL     1     -58.978 -40.822 -83.048  0.00  0.00    +0.000 C 
ATOM     28  C   UNL     1     -57.675 -41.451 -83.438  0.00  0.00    +0.000 C 
ENDBRANCH  24  26
ENDBRANCH  13  24
TORSDOF 5
ENDMDL
MODEL 16
REMARK VINA RESULT:    -5.441      3.384      5.569
REMARK INTER + INTRA:          -7.972
REMARK INTER:                  -6.863
REMARK INTRA:                  -1.108
REMARK UNBOUND:                -0.940
REMARK  Name = 
REMARK  6 active torsions:
REMARK  status: ('A' for Active; 'I' for Inactive)
REMARK    1  A    between atoms: C_1  and  C_2
REMARK    2  A    between atoms: C_4  and  C_5
REMARK    3  A    between atoms: C_5  and  S_6
REMARK    4  A    between atoms: S_6  and  C_8
REMARK    5  A    between atoms: C_20  and  C_21
REMARK    6  A    between atoms: C_21  and  C_23
REMARK                            x       y       z     vdW  Elec       q    Type
REMARK                         _______ _______ _______ _____ _____    ______ ____
ROOT
ATOM      1  C   UNL     1     -56.494 -41.853 -61.582  0.00  0.00    +0.000 A 
ATOM      2  N   UNL     1     -55.455 -41.647 -62.509  0.00  0.00    +0.000 N 
ATOM      3  C   UNL     1     -55.705 -41.729 -63.906  0.00  0.00    +0.000 A 
ATOM      4  C   UNL     1     -54.850 -41.168 -64.874  0.00  0.00    +0.000 A 
ATOM      5 BR   UNL     1     -53.371 -40.093 -64.368  0.00  0.00    +0.000 Br
ATOM      6  C   UNL     1     -55.075 -41.366 -66.243  0.00  0.00    +0.000 A 
ATOM      7  C   UNL     1     -56.184 -42.110 -66.662  0.00  0.00    +0.000 A 
ATOM      8  C   UNL     1     -57.047 -42.674 -65.722  0.00  0.00    +0.000 A 
ATOM      9 CL   UNL     1     -58.424 -43.512 -66.340  0.00  0.00    +0.000 Cl
ATOM     10  C   UNL     1     -56.790 -42.499 -64.353  0.00  0.00    +0.000 A 
ATOM     11  C   UNL     1     -57.596 -43.127 -63.288  0.00  0.00    +0.000 A 
ATOM     12  O   UNL     1     -58.155 -44.204 -63.453  0.00  0.00    +0.000 OA
ATOM     13  C   UNL     1     -57.651 -42.445 -61.953  0.00  0.00    +0.000 A 
ATOM     14  H   UNL     1     -54.845 -40.863 -62.243  0.00  0.00    +0.000 HD
ENDROOT
BRANCH   1  15
ATOM     15  S   UNL     1     -56.284 -40.873 -60.072  0.00  0.00    +0.000 S 
ATOM     16  O   UNL     1     -57.318 -41.423 -59.127  0.00  0.00    +0.000 OA
BRANCH  15  17
ATOM     17  C   UNL     1     -56.721 -39.141 -60.407  0.00  0.00    +0.000 C 
BRANCH  17  21
ATOM     18  C   UNL     1     -55.188 -36.464 -64.493  0.00  0.00    +0.000 C 
ATOM     19  C   UNL     1     -55.456 -37.158 -63.220  0.00  0.00    +0.000 A 
ATOM     20  C   UNL     1     -56.486 -37.930 -62.738  0.00  0.00    +0.000 A 
ATOM     21  C   UNL     1     -56.046 -38.354 -61.464  0.00  0.00    +0.000 A 
ATOM     22  N   UNL     1     -54.852 -37.809 -61.172  0.00  0.00    +0.000 NA
ATOM     23  O   UNL     1     -54.488 -37.064 -62.274  0.00  0.00    +0.000 OA
ENDBRANCH  17  21
ENDBRANCH  15  17
ENDBRANCH   1  15
BRANCH  13  24
ATOM     24  C   UNL     1     -59.018 -42.398 -61.360  0.00  0.00    +0.000 C 
ATOM     25  O   UNL     1     -59.321 -43.141 -60.443  0.00  0.00    +0.000 OA
BRANCH  24  26
ATOM     26  C   UNL     1     -59.981 -41.405 -61.871  0.00  0.00    +0.000 C 
ATOM     27  C   UNL     1     -59.471 -40.136 -62.506  0.00  0.00    +0.000 C 
ATOM     28  C   UNL     1     -60.172 -40.074 -61.183  0.00  0.00    +0.000 C 
ENDBRANCH  24  26
ENDBRANCH  13  24
TORSDOF 5
ENDMDL
MODEL 17
REMARK VINA RESULT:    -5.427     12.618     14.998
REMARK INTER + INTRA:          -7.953
REMARK INTER:                  -6.971
REMARK INTRA:                  -0.982
REMARK UNBOUND:                -0.940
REMARK  Name = 
REMARK  6 active torsions:
REMARK  status: ('A' for Active; 'I' for Inactive)
REMARK    1  A    between atoms: C_1  and  C_2
REMARK    2  A    between atoms: C_4  and  C_5
REMARK    3  A    between atoms: C_5  and  S_6
REMARK    4  A    between atoms: S_6  and  C_8
REMARK    5  A    between atoms: C_20  and  C_21
REMARK    6  A    between atoms: C_21  and  C_23
REMARK                            x       y       z     vdW  Elec       q    Type
REMARK                         _______ _______ _______ _____ _____    ______ ____
ROOT
ATOM      1  C   UNL     1     -56.097 -43.417 -78.050  0.00  0.00    +0.000 A 
ATOM      2  N   UNL     1     -56.302 -42.945 -79.361  0.00  0.00    +0.000 N 
ATOM      3  C   UNL     1     -55.537 -41.859 -79.867  0.00  0.00    +0.000 A 
ATOM      4  C   UNL     1     -55.401 -41.591 -81.242  0.00  0.00    +0.000 A 
ATOM      5 BR   UNL     1     -56.094 -42.782 -82.546  0.00  0.00    +0.000 Br
ATOM      6  C   UNL     1     -54.728 -40.447 -81.695  0.00  0.00    +0.000 A 
ATOM      7  C   UNL     1     -54.157 -39.568 -80.768  0.00  0.00    +0.000 A 
ATOM      8  C   UNL     1     -54.277 -39.814 -79.400  0.00  0.00    +0.000 A 
ATOM      9 CL   UNL     1     -53.475 -38.709 -78.342  0.00  0.00    +0.000 Cl
ATOM     10  C   UNL     1     -54.983 -40.943 -78.959  0.00  0.00    +0.000 A 
ATOM     11  C   UNL     1     -55.235 -41.240 -77.535  0.00  0.00    +0.000 A 
ATOM     12  O   UNL     1     -55.348 -40.350 -76.702  0.00  0.00    +0.000 OA
ATOM     13  C   UNL     1     -55.431 -42.673 -77.139  0.00  0.00    +0.000 A 
ATOM     14  H   UNL     1     -56.430 -43.712 -80.035  0.00  0.00    +0.000 HD
ENDROOT
BRANCH   1  15
ATOM     15  S   UNL     1     -56.399 -45.197 -77.895  0.00  0.00    +0.000 S 
ATOM     16  O   UNL     1     -55.123 -45.831 -78.378  0.00  0.00    +0.000 OA
BRANCH  15  17
ATOM     17  C   UNL     1     -57.719 -45.691 -79.042  0.00  0.00    +0.000 C 
BRANCH  17  21
ATOM     18  C   UNL     1     -62.273 -43.854 -77.590  0.00  0.00    +0.000 C 
ATOM     19  C   UNL     1     -61.050 -44.408 -78.200  0.00  0.00    +0.000 A 
ATOM     20  C   UNL     1     -59.758 -44.600 -77.772  0.00  0.00    +0.000 A 
ATOM     21  C   UNL     1     -59.125 -45.271 -78.843  0.00  0.00    +0.000 A 
ATOM     22  N   UNL     1     -59.972 -45.409 -79.879  0.00  0.00    +0.000 NA
ATOM     23  O   UNL     1     -61.173 -44.869 -79.471  0.00  0.00    +0.000 OA
ENDBRANCH  17  21
ENDBRANCH  15  17
ENDBRANCH   1  15
BRANCH  13  24
ATOM     24  C   UNL     1     -54.706 -43.055 -75.894  0.00  0.00    +0.000 C 
ATOM     25  O   UNL     1     -55.278 -43.049 -74.818  0.00  0.00    +0.000 OA
BRANCH  24  26
ATOM     26  C   UNL     1     -53.299 -43.486 -75.994  0.00  0.00    +0.000 C 
ATOM     27  C   UNL     1     -52.508 -43.731 -74.735  0.00  0.00    +0.000 C 
ATOM     28  C   UNL     1     -52.168 -42.562 -75.608  0.00  0.00    +0.000 C 
ENDBRANCH  24  26
ENDBRANCH  13  24
TORSDOF 5
ENDMDL
MODEL 18
REMARK VINA RESULT:    -5.320      4.342      6.682
REMARK INTER + INTRA:          -7.814
REMARK INTER:                  -7.171
REMARK INTRA:                  -0.643
REMARK UNBOUND:                -0.940
REMARK  Name = 
REMARK  6 active torsions:
REMARK  status: ('A' for Active; 'I' for Inactive)
REMARK    1  A    between atoms: C_1  and  C_2
REMARK    2  A    between atoms: C_4  and  C_5
REMARK    3  A    between atoms: C_5  and  S_6
REMARK    4  A    between atoms: S_6  and  C_8
REMARK    5  A    between atoms: C_20  and  C_21
REMARK    6  A    between atoms: C_21  and  C_23
REMARK                            x       y       z     vdW  Elec       q    Type
REMARK                         _______ _______ _______ _____ _____    ______ ____
ROOT
ATOM      1  C   UNL     1     -58.464 -43.150 -61.982  0.00  0.00    +0.000 A 
ATOM      2  N   UNL     1     -59.324 -44.090 -61.382  0.00  0.00    +0.000 N 
ATOM      3  C   UNL     1     -60.519 -43.669 -60.737  0.00  0.00    +0.000 A 
ATOM      4  C   UNL     1     -61.594 -44.537 -60.470  0.00  0.00    +0.000 A 
ATOM      5 BR   UNL     1     -61.599 -46.319 -61.121  0.00  0.00    +0.000 Br
ATOM      6  C   UNL     1     -62.708 -44.107 -59.734  0.00  0.00    +0.000 A 
ATOM      7  C   UNL     1     -62.768 -42.785 -59.279  0.00  0.00    +0.000 A 
ATOM      8  C   UNL     1     -61.716 -41.906 -59.533  0.00  0.00    +0.000 A 
ATOM      9 CL   UNL     1     -61.919 -40.279 -58.992  0.00  0.00    +0.000 Cl
ATOM     10  C   UNL     1     -60.591 -42.358 -60.240  0.00  0.00    +0.000 A 
ATOM     11  C   UNL     1     -59.395 -41.528 -60.482  0.00  0.00    +0.000 A 
ATOM     12  O   UNL     1     -59.047 -40.655 -59.697  0.00  0.00    +0.000 OA
ATOM     13  C   UNL     1     -58.559 -41.834 -61.689  0.00  0.00    +0.000 A 
ATOM     14  H   UNL     1     -59.440 -44.935 -61.959  0.00  0.00    +0.000 HD
ENDROOT
BRANCH   1  15
ATOM     15  S   UNL     1     -57.605 -43.817 -63.432  0.00  0.00    +0.000 S 
ATOM     16  O   UNL     1     -56.174 -43.396 -63.240  0.00  0.00    +0.000 OA
BRANCH  15  17
ATOM     17  C   UNL     1     -58.218 -42.993 -64.931  0.00  0.00    +0.000 C 
BRANCH  17  21
ATOM     18  C   UNL     1     -55.896 -43.259 -69.487  0.00  0.00    +0.000 C 
ATOM     19  C   UNL     1     -56.466 -42.995 -68.153  0.00  0.00    +0.000 A 
ATOM     20  C   UNL     1     -57.389 -43.627 -67.354  0.00  0.00    +0.000 A 
ATOM     21  C   UNL     1     -57.391 -42.880 -66.155  0.00  0.00    +0.000 A 
ATOM     22  N   UNL     1     -56.569 -41.821 -66.258  0.00  0.00    +0.000 NA
ATOM     23  O   UNL     1     -55.992 -41.899 -67.508  0.00  0.00    +0.000 OA
ENDBRANCH  17  21
ENDBRANCH  15  17
ENDBRANCH   1  15
BRANCH  13  24
ATOM     24  C   UNL     1     -58.129 -40.622 -62.443  0.00  0.00    +0.000 C 
ATOM     25  O   UNL     1     -58.909 -40.038 -63.173  0.00  0.00    +0.000 OA
BRANCH  24  26
ATOM     26  C   UNL     1     -56.756 -40.116 -62.252  0.00  0.00    +0.000 C 
ATOM     27  C   UNL     1     -56.400 -38.737 -62.743  0.00  0.00    +0.000 C 
ATOM     28  C   UNL     1     -55.818 -39.939 -63.422  0.00  0.00    +0.000 C 
ENDBRANCH  24  26
ENDBRANCH  13  24
TORSDOF 5
ENDMDL
MODEL 19
REMARK VINA RESULT:    -5.275     14.620     17.268
REMARK INTER + INTRA:          -7.756
REMARK INTER:                  -6.753
REMARK INTRA:                  -1.003
REMARK UNBOUND:                -0.940
REMARK  Name = 
REMARK  6 active torsions:
REMARK  status: ('A' for Active; 'I' for Inactive)
REMARK    1  A    between atoms: C_1  and  C_2
REMARK    2  A    between atoms: C_4  and  C_5
REMARK    3  A    between atoms: C_5  and  S_6
REMARK    4  A    between atoms: S_6  and  C_8
REMARK    5  A    between atoms: C_20  and  C_21
REMARK    6  A    between atoms: C_21  and  C_23
REMARK                            x       y       z     vdW  Elec       q    Type
REMARK                         _______ _______ _______ _____ _____    ______ ____
ROOT
ATOM      1  C   UNL     1     -55.001 -41.681 -79.828  0.00  0.00    +0.000 A 
ATOM      2  N   UNL     1     -56.202 -41.925 -80.522  0.00  0.00    +0.000 N 
ATOM      3  C   UNL     1     -57.456 -41.812 -79.860  0.00  0.00    +0.000 A 
ATOM      4  C   UNL     1     -58.675 -41.654 -80.545  0.00  0.00    +0.000 A 
ATOM      5 BR   UNL     1     -58.715 -41.397 -82.424  0.00  0.00    +0.000 Br
ATOM      6  C   UNL     1     -59.898 -41.658 -79.860  0.00  0.00    +0.000 A 
ATOM      7  C   UNL     1     -59.911 -41.793 -78.467  0.00  0.00    +0.000 A 
ATOM      8  C   UNL     1     -58.715 -41.949 -77.766  0.00  0.00    +0.000 A 
ATOM      9 CL   UNL     1     -58.833 -42.036 -76.045  0.00  0.00    +0.000 Cl
ATOM     10  C   UNL     1     -57.500 -41.980 -78.467  0.00  0.00    +0.000 A 
ATOM     11  C   UNL     1     -56.196 -42.226 -77.822  0.00  0.00    +0.000 A 
ATOM     12  O   UNL     1     -56.093 -42.921 -76.818  0.00  0.00    +0.000 OA
ATOM     13  C   UNL     1     -54.969 -41.663 -78.477  0.00  0.00    +0.000 A 
ATOM     14  H   UNL     1     -56.195 -41.518 -81.467  0.00  0.00    +0.000 HD
ENDROOT
BRANCH   1  15
ATOM     15  S   UNL     1     -53.712 -40.983 -80.893  0.00  0.00    +0.000 S 
ATOM     16  O   UNL     1     -54.261 -39.645 -81.308  0.00  0.00    +0.000 OA
BRANCH  15  17
ATOM     17  C   UNL     1     -53.550 -41.994 -82.393  0.00  0.00    +0.000 C 
BRANCH  17  21
ATOM     18  C   UNL     1     -54.813 -40.429 -87.102  0.00  0.00    +0.000 C 
ATOM     19  C   UNL     1     -54.645 -40.963 -85.737  0.00  0.00    +0.000 A 
ATOM     20  C   UNL     1     -53.598 -41.034 -84.849  0.00  0.00    +0.000 A 
ATOM     21  C   UNL     1     -54.163 -41.590 -83.679  0.00  0.00    +0.000 A 
ATOM     22  N   UNL     1     -55.456 -41.899 -83.881  0.00  0.00    +0.000 NA
ATOM     23  O   UNL     1     -55.752 -41.503 -85.168  0.00  0.00    +0.000 OA
ENDBRANCH  17  21
ENDBRANCH  15  17
ENDBRANCH   1  15
BRANCH  13  24
ATOM     24  C   UNL     1     -54.017 -41.029 -77.522  0.00  0.00    +0.000 C 
ATOM     25  O   UNL     1     -54.258 -39.936 -77.040  0.00  0.00    +0.000 OA
BRANCH  24  26
ATOM     26  C   UNL     1     -52.801 -41.769 -77.134  0.00  0.00    +0.000 C 
ATOM     27  C   UNL     1     -51.716 -41.061 -76.364  0.00  0.00    +0.000 C 
ATOM     28  C   UNL     1     -51.468 -41.479 -77.781  0.00  0.00    +0.000 C 
ENDBRANCH  24  26
ENDBRANCH  13  24
TORSDOF 5
ENDMDL
MODEL 20
REMARK VINA RESULT:    -5.237      5.269      8.370
REMARK INTER + INTRA:          -7.708
REMARK INTER:                  -6.943
REMARK INTRA:                  -0.765
REMARK UNBOUND:                -0.940
REMARK  Name = 
REMARK  6 active torsions:
REMARK  status: ('A' for Active; 'I' for Inactive)
REMARK    1  A    between atoms: C_1  and  C_2
REMARK    2  A    between atoms: C_4  and  C_5
REMARK    3  A    between atoms: C_5  and  S_6
REMARK    4  A    between atoms: S_6  and  C_8
REMARK    5  A    between atoms: C_20  and  C_21
REMARK    6  A    between atoms: C_21  and  C_23
REMARK                            x       y       z     vdW  Elec       q    Type
REMARK                         _______ _______ _______ _____ _____    ______ ____
ROOT
ATOM      1  C   UNL     1     -59.885 -42.519 -61.099  0.00  0.00    +0.000 A 
ATOM      2  N   UNL     1     -60.372 -43.747 -60.610  0.00  0.00    +0.000 N 
ATOM      3  C   UNL     1     -61.743 -43.894 -60.260  0.00  0.00    +0.000 A 
ATOM      4  C   UNL     1     -62.376 -45.145 -60.145  0.00  0.00    +0.000 A 
ATOM      5 BR   UNL     1     -61.478 -46.745 -60.630  0.00  0.00    +0.000 Br
ATOM      6  C   UNL     1     -63.698 -45.250 -59.691  0.00  0.00    +0.000 A 
ATOM      7  C   UNL     1     -64.415 -44.091 -59.372  0.00  0.00    +0.000 A 
ATOM      8  C   UNL     1     -63.809 -42.839 -59.480  0.00  0.00    +0.000 A 
ATOM      9 CL   UNL     1     -64.800 -41.468 -59.132  0.00  0.00    +0.000 Cl
ATOM     10  C   UNL     1     -62.474 -42.750 -59.901  0.00  0.00    +0.000 A 
ATOM     11  C   UNL     1     -61.724 -41.480 -59.964  0.00  0.00    +0.000 A 
ATOM     12  O   UNL     1     -61.963 -40.552 -59.202  0.00  0.00    +0.000 OA
ATOM     13  C   UNL     1     -60.593 -41.379 -60.945  0.00  0.00    +0.000 A 
ATOM     14  H   UNL     1     -59.987 -44.551 -61.124  0.00  0.00    +0.000 HD
ENDROOT
BRANCH   1  15
ATOM     15  S   UNL     1     -58.528 -42.730 -62.281  0.00  0.00    +0.000 S 
ATOM     16  O   UNL     1     -58.498 -44.210 -62.549  0.00  0.00    +0.000 OA
BRANCH  15  17
ATOM     17  C   UNL     1     -56.956 -42.289 -61.485  0.00  0.00    +0.000 C 
BRANCH  17  21
ATOM     18  C   UNL     1     -52.970 -45.353 -62.458  0.00  0.00    +0.000 C 
ATOM     19  C   UNL     1     -54.043 -44.462 -61.978  0.00  0.00    +0.000 A 
ATOM     20  C   UNL     1     -55.092 -43.803 -62.575  0.00  0.00    +0.000 A 
ATOM     21  C   UNL     1     -55.787 -43.198 -61.504  0.00  0.00    +0.000 A 
ATOM     22  N   UNL     1     -55.149 -43.423 -60.342  0.00  0.00    +0.000 NA
ATOM     23  O   UNL     1     -54.061 -44.215 -60.644  0.00  0.00    +0.000 OA
ENDBRANCH  17  21
ENDBRANCH  15  17
ENDBRANCH   1  15
BRANCH  13  24
ATOM     24  C   UNL     1     -60.565 -40.091 -61.695  0.00  0.00    +0.000 C 
ATOM     25  O   UNL     1     -61.349 -39.888 -62.606  0.00  0.00    +0.000 OA
BRANCH  24  26
ATOM     26  C   UNL     1     -59.604 -39.050 -61.285  0.00  0.00    +0.000 C 
ATOM     27  C   UNL     1     -59.504 -37.777 -62.086  0.00  0.00    +0.000 C 
ATOM     28  C   UNL     1     -58.370 -38.756 -62.105  0.00  0.00    +0.000 C 
ENDBRANCH  24  26
ENDBRANCH  13  24
TORSDOF 5
ENDMDL
