REMARK VINA RESULT:    -5.773     24.807     25.941
REMARK INTER + INTRA:          -7.843
REMARK INTER:                  -7.047
REMARK INTRA:                  -0.796
REMARK UNBOUND:                -0.720
REMARK  Name = 
REMARK  6 active torsions:
REMARK  status: ('A' for Active; 'I' for Inactive)
REMARK    1  A    between atoms: C_1  and  C_2
REMARK    2  A    between atoms: C_2  and  C_4
REMARK    3  A    between atoms: C_5  and  S_6
REMARK    4  A    between atoms: S_6  and  C_8
REMARK    5  A    between atoms: C_8  and  C_9
REMARK    6  A    between atoms: C_11  and  C_12
REMARK                            x       y       z     vdW  Elec       q    Type
REMARK                         _______ _______ _______ _____ _____    ______ ____
ROOT
ATOM      1  C   UNL     1     -68.991 -51.002 -55.139  0.00  0.00    +0.000 A 
ATOM      2  C   UNL     1     -68.116 -49.967 -55.206  0.00  0.00    +0.000 A 
ATOM      3  N   UNL     1     -66.892 -49.971 -54.561  0.00  0.00    +0.000 N 
ATOM      4  C   UNL     1     -66.510 -50.976 -53.653  0.00  0.00    +0.000 A 
ATOM      5  C   UNL     1     -65.287 -50.907 -52.966  0.00  0.00    +0.000 A 
ATOM      6 BR   UNL     1     -64.145 -49.399 -53.154  0.00  0.00    +0.000 Br
ATOM      7  C   UNL     1     -64.876 -51.936 -52.117  0.00  0.00    +0.000 A 
ATOM      8  C   UNL     1     -65.688 -53.055 -51.951  0.00  0.00    +0.000 A 
ATOM      9  C   UNL     1     -66.904 -53.153 -52.628  0.00  0.00    +0.000 A 
ATOM     10 CL   UNL     1     -67.803 -54.596 -52.305  0.00  0.00    +0.000 Cl
ATOM     11  C   UNL     1     -67.313 -52.116 -53.494  0.00  0.00    +0.000 A 
ATOM     12  C   UNL     1     -68.591 -52.150 -54.247  0.00  0.00    +0.000 A 
ATOM     13  O   UNL     1     -69.350 -53.107 -54.110  0.00  0.00    +0.000 OA
ATOM     14  H   UNL     1     -66.447 -49.063 -54.435  0.00  0.00    +0.000 HD
ENDROOT
BRANCH   1  16
ATOM     15  C   UNL     1     -70.373 -51.650 -57.249  0.00  0.00    +0.000 C 
ATOM     16  C   UNL     1     -70.314 -51.068 -55.854  0.00  0.00    +0.000 C 
ATOM     17  O   UNL     1     -71.353 -50.644 -55.337  0.00  0.00    +0.000 OA
ENDBRANCH   1  16
BRANCH   2  18
ATOM     18  S   UNL     1     -68.566 -48.405 -56.041  0.00  0.00    +0.000 S 
ATOM     19  O   UNL     1     -69.530 -47.753 -55.086  0.00  0.00    +0.000 OA
BRANCH  18  20
ATOM     20  C   UNL     1     -66.994 -47.489 -55.872  0.00  0.00    +0.000 C 
BRANCH  20  21
ATOM     21  C   UNL     1     -66.225 -47.411 -57.155  0.00  0.00    +0.000 A 
ATOM     22  C   UNL     1     -66.491 -47.992 -58.424  0.00  0.00    +0.000 A 
ATOM     23  C   UNL     1     -65.462 -47.570 -59.227  0.00  0.00    +0.000 A 
ATOM     24  C   UNL     1     -65.070 -47.815 -60.629  0.00  0.00    +0.000 C 
ATOM     25  O   UNL     1     -64.649 -46.750 -58.508  0.00  0.00    +0.000 OA
ATOM     26  N   UNL     1     -65.127 -46.642 -57.215  0.00  0.00    +0.000 NA
ENDBRANCH  20  21
ENDBRANCH  18  20
ENDBRANCH   2  18
TORSDOF 4
