REMARK VINA RESULT:    -5.788     14.137     15.733
REMARK INTER + INTRA:          -8.379
REMARK INTER:                  -7.622
REMARK INTRA:                  -0.757
REMARK UNBOUND:                -0.899
REMARK  Name = 
REMARK  6 active torsions:
REMARK  status: ('A' for Active; 'I' for Inactive)
REMARK    1  A    between atoms: C_1  and  C_2
REMARK    2  A    between atoms: C_4  and  C_5
REMARK    3  A    between atoms: C_5  and  S_6
REMARK    4  A    between atoms: S_6  and  C_8
REMARK    5  A    between atoms: C_20  and  C_21
REMARK    6  A    between atoms: C_21  and  C_23
REMARK                            x       y       z     vdW  Elec       q    Type
REMARK                         _______ _______ _______ _____ _____    ______ ____
ROOT
ATOM      1  C   UNL     1     -56.938 -38.298 -62.742  0.00  0.00    +0.000 A 
ATOM      2  N   UNL     1     -56.800 -39.633 -63.168  0.00  0.00    +0.000 N 
ATOM      3  C   UNL     1     -55.547 -40.119 -63.631  0.00  0.00    +0.000 A 
ATOM      4  C   UNL     1     -55.232 -41.489 -63.698  0.00  0.00    +0.000 A 
ATOM      5 BR   UNL     1     -56.410 -42.800 -62.997  0.00  0.00    +0.000 Br
ATOM      6  C   UNL     1     -54.027 -41.930 -64.263  0.00  0.00    +0.000 A 
ATOM      7  C   UNL     1     -53.106 -40.993 -64.746  0.00  0.00    +0.000 A 
ATOM      8  C   UNL     1     -53.395 -39.630 -64.689  0.00  0.00    +0.000 A 
ATOM      9 CL   UNL     1     -52.163 -38.554 -65.244  0.00  0.00    +0.000 Cl
ATOM     10  C   UNL     1     -54.620 -39.204 -64.153  0.00  0.00    +0.000 A 
ATOM     11  C   UNL     1     -55.049 -37.792 -64.129  0.00  0.00    +0.000 A 
ATOM     12  O   UNL     1     -54.691 -36.994 -64.987  0.00  0.00    +0.000 OA
ATOM     13  C   UNL     1     -56.011 -37.367 -63.059  0.00  0.00    +0.000 A 
ATOM     14  H   UNL     1     -57.299 -40.291 -62.553  0.00  0.00    +0.000 HD
ENDROOT
BRANCH   1  15
ATOM     15  S   UNL     1     -58.167 -38.111 -61.424  0.00  0.00    +0.000 S 
ATOM     16  O   UNL     1     -57.359 -38.152 -60.156  0.00  0.00    +0.000 OA
BRANCH  15  17
ATOM     17  C   UNL     1     -59.269 -39.555 -61.413  0.00  0.00    +0.000 C 
BRANCH  17  21
ATOM     18  C   UNL     1     -63.954 -40.033 -63.423  0.00  0.00    +0.000 C 
ATOM     19  C   UNL     1     -62.693 -39.755 -62.710  0.00  0.00    +0.000 A 
ATOM     20  C   UNL     1     -61.419 -40.267 -62.765  0.00  0.00    +0.000 A 
ATOM     21  C   UNL     1     -60.677 -39.470 -61.865  0.00  0.00    +0.000 A 
ATOM     22  N   UNL     1     -61.477 -38.579 -61.255  0.00  0.00    +0.000 NA
ATOM     23  O   UNL     1     -62.736 -38.761 -61.788  0.00  0.00    +0.000 OA
ENDBRANCH  17  21
ENDBRANCH  15  17
ENDBRANCH   1  15
BRANCH  13  24
ATOM     24  C   UNL     1     -55.662 -36.066 -62.422  0.00  0.00    +0.000 C 
ATOM     25  O   UNL     1     -54.834 -36.015 -61.529  0.00  0.00    +0.000 OA
BRANCH  24  26
ATOM     26  C   UNL     1     -56.301 -34.834 -62.923  0.00  0.00    +0.000 C 
ATOM     27  C   UNL     1     -56.395 -33.629 -62.024  0.00  0.00    +0.000 C 
ATOM     28  C   UNL     1     -57.639 -34.376 -62.395  0.00  0.00    +0.000 C 
ENDBRANCH  24  26
ENDBRANCH  13  24
TORSDOF 5
