REMARK VINA RESULT:    -5.075     12.726     17.682
REMARK INTER + INTRA:          -7.227
REMARK INTER:                  -6.487
REMARK INTRA:                  -0.739
REMARK UNBOUND:                -0.965
REMARK  Name = 
REMARK  6 active torsions:
REMARK  status: ('A' for Active; 'I' for Inactive)
REMARK    1  A    between atoms: C_1  and  C_2
REMARK    2  A    between atoms: C_2  and  C_4
REMARK    3  A    between atoms: C_5  and  S_6
REMARK    4  A    between atoms: S_6  and  C_8
REMARK    5  A    between atoms: C_8  and  C_9
REMARK    6  A    between atoms: C_11  and  C_12
REMARK                            x       y       z     vdW  Elec       q    Type
REMARK                         _______ _______ _______ _____ _____    ______ ____
ROOT
ATOM      1  C   UNL     1     -46.936 -25.274 -64.318  0.00  0.00    +0.000 A 
ATOM      2  C   UNL     1     -47.508 -25.602 -63.136  0.00  0.00    +0.000 A 
ATOM      3  N   UNL     1     -48.733 -25.117 -62.726  0.00  0.00    +0.000 N 
ATOM      4  C   UNL     1     -49.440 -24.133 -63.437  0.00  0.00    +0.000 A 
ATOM      5  C   UNL     1     -50.685 -23.666 -62.972  0.00  0.00    +0.000 A 
ATOM      6 BR   UNL     1     -51.419 -24.301 -61.337  0.00  0.00    +0.000 Br
ATOM      7  C   UNL     1     -51.418 -22.728 -63.697  0.00  0.00    +0.000 A 
ATOM      8  C   UNL     1     -50.913 -22.247 -64.900  0.00  0.00    +0.000 A 
ATOM      9  C   UNL     1     -49.690 -22.713 -65.396  0.00  0.00    +0.000 A 
ATOM     10 CL   UNL     1     -49.193 -22.011 -66.897  0.00  0.00    +0.000 Cl
ATOM     11  C   UNL     1     -48.958 -23.679 -64.675  0.00  0.00    +0.000 A 
ATOM     12  C   UNL     1     -47.665 -24.247 -65.146  0.00  0.00    +0.000 A 
ATOM     13  O   UNL     1     -47.171 -23.847 -66.194  0.00  0.00    +0.000 OA
ATOM     14  H   UNL     1     -48.905 -25.142 -61.720  0.00  0.00    +0.000 HD
ENDROOT
BRANCH   1  16
ATOM     15  C   UNL     1     -44.353 -25.061 -64.553  0.00  0.00    +0.000 C 
ATOM     16  C   UNL     1     -45.630 -25.827 -64.823  0.00  0.00    +0.000 C 
ATOM     17  O   UNL     1     -45.574 -26.869 -65.470  0.00  0.00    +0.000 OA
ENDBRANCH   1  16
BRANCH   2  18
ATOM     18  S   UNL     1     -46.616 -26.608 -61.896  0.00  0.00    +0.000 S 
ATOM     19  O   UNL     1     -46.021 -25.576 -60.976  0.00  0.00    +0.000 OA
BRANCH  18  20
ATOM     20  C   UNL     1     -48.047 -27.314 -61.002  0.00  0.00    +0.000 C 
BRANCH  20  21
ATOM     21  C   UNL     1     -48.304 -28.735 -61.384  0.00  0.00    +0.000 A 
ATOM     22  C   UNL     1     -49.514 -29.350 -61.801  0.00  0.00    +0.000 A 
ATOM     23  C   UNL     1     -49.160 -30.640 -62.107  0.00  0.00    +0.000 A 
ATOM     24  C   UNL     1     -49.889 -31.825 -62.603  0.00  0.00    +0.000 C 
ATOM     25  O   UNL     1     -47.827 -30.797 -61.895  0.00  0.00    +0.000 OA
ATOM     26  N   UNL     1     -47.285 -29.605 -61.448  0.00  0.00    +0.000 NA
ENDBRANCH  20  21
ENDBRANCH  18  20
ENDBRANCH   2  18
TORSDOF 4
