REMARK VINA RESULT:    -6.408      3.507      5.161
REMARK INTER + INTRA:          -9.175
REMARK INTER:                  -8.213
REMARK INTRA:                  -0.962
REMARK UNBOUND:                -0.894
REMARK  Name = 
REMARK  8 active torsions:
REMARK  status: ('A' for Active; 'I' for Inactive)
REMARK    1  A    between atoms: C_1  and  C_2
REMARK    2  A    between atoms: C_4  and  C_5
REMARK    3  A    between atoms: C_5  and  S_6
REMARK    4  A    between atoms: S_6  and  C_8
REMARK    5  A    between atoms: C_20  and  C_21
REMARK    6  A    between atoms: C_21  and  C_23
REMARK    7  A    between atoms: C_23  and  C_24
REMARK    8  A    between atoms: C_23  and  C_25
REMARK                            x       y       z     vdW  Elec       q    Type
REMARK                         _______ _______ _______ _____ _____    ______ ____
ROOT
ATOM      1  C   UNL     1     -54.882 -42.843 -78.990  0.00  0.00    +0.000 A 
ATOM      2  N   UNL     1     -53.884 -43.069 -79.935  0.00  0.00    +0.000 N 
ATOM      3  C   UNL     1     -53.732 -42.238 -81.065  0.00  0.00    +0.000 A 
ATOM      4  C   UNL     1     -52.536 -42.196 -81.808  0.00  0.00    +0.000 A 
ATOM      5 CL   UNL     1     -51.132 -43.046 -81.268  0.00  0.00    +0.000 Cl
ATOM      6  C   UNL     1     -52.444 -41.447 -82.981  0.00  0.00    +0.000 A 
ATOM      7  C   UNL     1     -53.553 -40.724 -83.427  0.00  0.00    +0.000 A 
ATOM      8  C   UNL     1     -54.747 -40.741 -82.694  0.00  0.00    +0.000 A 
ATOM      9 CL   UNL     1     -56.024 -39.757 -83.309  0.00  0.00    +0.000 Cl
ATOM     10  C   UNL     1     -54.838 -41.508 -81.522  0.00  0.00    +0.000 A 
ATOM     11  C   UNL     1     -56.072 -41.664 -80.711  0.00  0.00    +0.000 A 
ATOM     12  O   UNL     1     -57.164 -41.557 -81.257  0.00  0.00    +0.000 OA
ATOM     13  C   UNL     1     -55.956 -42.043 -79.240  0.00  0.00    +0.000 A 
ATOM     14  H   UNL     1     -53.008 -43.426 -79.530  0.00  0.00    +0.000 HD
ENDROOT
BRANCH   1  15
ATOM     15  S   UNL     1     -54.419 -43.546 -77.355  0.00  0.00    +0.000 S 
ATOM     16  O   UNL     1     -55.626 -44.351 -76.959  0.00  0.00    +0.000 OA
BRANCH  15  17
ATOM     17  C   UNL     1     -54.368 -42.060 -76.273  0.00  0.00    +0.000 C 
BRANCH  17  21
ATOM     18  C   UNL     1     -49.548 -40.237 -75.843  0.00  0.00    +0.000 C 
ATOM     19  C   UNL     1     -50.965 -40.588 -76.079  0.00  0.00    +0.000 A 
ATOM     20  C   UNL     1     -51.743 -41.701 -75.861  0.00  0.00    +0.000 A 
ATOM     21  C   UNL     1     -53.049 -41.328 -76.288  0.00  0.00    +0.000 A 
ATOM     22  N   UNL     1     -53.033 -40.072 -76.764  0.00  0.00    +0.000 NA
ATOM     23  O   UNL     1     -51.737 -39.614 -76.627  0.00  0.00    +0.000 OA
ENDBRANCH  17  21
ENDBRANCH  15  17
ENDBRANCH   1  15
BRANCH  13  24
ATOM     24  C   UNL     1     -57.026 -41.451 -78.346  0.00  0.00    +0.000 C 
ATOM     25  O   UNL     1     -56.835 -40.358 -77.797  0.00  0.00    +0.000 OA
BRANCH  24  26
ATOM     26  C   UNL     1     -58.281 -42.217 -77.969  0.00  0.00    +0.000 C 
ATOM     27  C   UNL     1     -58.395 -42.301 -76.459  0.00  0.00    +0.000 C 
ATOM     28  C   UNL     1     -59.518 -41.637 -78.643  0.00  0.00    +0.000 C 
ENDBRANCH  24  26
ENDBRANCH  13  24
TORSDOF 5
