REMARK VINA RESULT:    -5.483     14.693     16.675
REMARK INTER + INTRA:          -7.984
REMARK INTER:                  -7.221
REMARK INTRA:                  -0.763
REMARK UNBOUND:                -0.899
REMARK  Name = 
REMARK  6 active torsions:
REMARK  status: ('A' for Active; 'I' for Inactive)
REMARK    1  A    between atoms: C_1  and  C_2
REMARK    2  A    between atoms: C_4  and  C_5
REMARK    3  A    between atoms: C_5  and  S_6
REMARK    4  A    between atoms: S_6  and  C_8
REMARK    5  A    between atoms: C_20  and  C_21
REMARK    6  A    between atoms: C_21  and  C_23
REMARK                            x       y       z     vdW  Elec       q    Type
REMARK                         _______ _______ _______ _____ _____    ______ ____
ROOT
ATOM      1  C   UNL     1     -57.114 -37.921 -62.792  0.00  0.00    +0.000 A 
ATOM      2  N   UNL     1     -57.039 -39.287 -63.129  0.00  0.00    +0.000 N 
ATOM      3  C   UNL     1     -55.807 -39.865 -63.539  0.00  0.00    +0.000 A 
ATOM      4  C   UNL     1     -55.562 -41.251 -63.512  0.00  0.00    +0.000 A 
ATOM      5 BR   UNL     1     -56.815 -42.452 -62.746  0.00  0.00    +0.000 Br
ATOM      6  C   UNL     1     -54.374 -41.788 -64.028  0.00  0.00    +0.000 A 
ATOM      7  C   UNL     1     -53.400 -40.932 -64.556  0.00  0.00    +0.000 A 
ATOM      8  C   UNL     1     -53.619 -39.555 -64.592  0.00  0.00    +0.000 A 
ATOM      9 CL   UNL     1     -52.327 -38.582 -65.196  0.00  0.00    +0.000 Cl
ATOM     10  C   UNL     1     -54.827 -39.034 -64.105  0.00  0.00    +0.000 A 
ATOM     11  C   UNL     1     -55.184 -37.604 -64.179  0.00  0.00    +0.000 A 
ATOM     12  O   UNL     1     -54.775 -36.883 -65.081  0.00  0.00    +0.000 OA
ATOM     13  C   UNL     1     -56.136 -37.062 -63.154  0.00  0.00    +0.000 A 
ATOM     14  H   UNL     1     -57.579 -39.878 -62.481  0.00  0.00    +0.000 HD
ENDROOT
BRANCH   1  15
ATOM     15  S   UNL     1     -58.349 -37.587 -61.509  0.00  0.00    +0.000 S 
ATOM     16  O   UNL     1     -58.899 -38.943 -61.164  0.00  0.00    +0.000 OA
BRANCH  15  17
ATOM     17  C   UNL     1     -59.709 -36.611 -62.216  0.00  0.00    +0.000 C 
BRANCH  17  21
ATOM     18  C   UNL     1     -64.004 -35.154 -59.840  0.00  0.00    +0.000 C 
ATOM     19  C   UNL     1     -62.863 -35.763 -60.548  0.00  0.00    +0.000 A 
ATOM     20  C   UNL     1     -61.655 -35.299 -61.014  0.00  0.00    +0.000 A 
ATOM     21  C   UNL     1     -61.002 -36.448 -61.513  0.00  0.00    +0.000 A 
ATOM     22  N   UNL     1     -61.802 -37.524 -61.416  0.00  0.00    +0.000 NA
ATOM     23  O   UNL     1     -62.963 -37.090 -60.811  0.00  0.00    +0.000 OA
ENDBRANCH  17  21
ENDBRANCH  15  17
ENDBRANCH   1  15
BRANCH  13  24
ATOM     24  C   UNL     1     -55.729 -35.741 -62.597  0.00  0.00    +0.000 C 
ATOM     25  O   UNL     1     -56.239 -34.712 -63.007  0.00  0.00    +0.000 OA
BRANCH  24  26
ATOM     26  C   UNL     1     -54.733 -35.704 -61.509  0.00  0.00    +0.000 C 
ATOM     27  C   UNL     1     -54.108 -34.388 -61.121  0.00  0.00    +0.000 C 
ATOM     28  C   UNL     1     -53.274 -35.437 -61.792  0.00  0.00    +0.000 C 
ENDBRANCH  24  26
ENDBRANCH  13  24
TORSDOF 5
