REMARK VINA RESULT:    -6.292     12.651     15.275
REMARK INTER + INTRA:          -9.173
REMARK INTER:                  -8.349
REMARK INTRA:                  -0.823
REMARK UNBOUND:                -1.042
REMARK  Name = 
REMARK  8 active torsions:
REMARK  status: ('A' for Active; 'I' for Inactive)
REMARK    1  A    between atoms: C_1  and  C_2
REMARK    2  A    between atoms: C_4  and  C_5
REMARK    3  A    between atoms: C_5  and  S_6
REMARK    4  A    between atoms: S_6  and  C_8
REMARK    5  A    between atoms: C_20  and  C_21
REMARK    6  A    between atoms: C_21  and  C_23
REMARK    7  A    between atoms: C_23  and  C_24
REMARK    8  A    between atoms: C_23  and  C_25
REMARK                            x       y       z     vdW  Elec       q    Type
REMARK                         _______ _______ _______ _____ _____    ______ ____
ROOT
ATOM      1  C   UNL     1     -55.469 -42.000 -77.840  0.00  0.00    +0.000 A 
ATOM      2  N   UNL     1     -56.743 -42.515 -77.622  0.00  0.00    +0.000 N 
ATOM      3  C   UNL     1     -57.373 -42.420 -76.366  0.00  0.00    +0.000 A 
ATOM      4  C   UNL     1     -58.768 -42.540 -76.216  0.00  0.00    +0.000 A 
ATOM      5 BR   UNL     1     -59.903 -42.674 -77.729  0.00  0.00    +0.000 Br
ATOM      6  C   UNL     1     -59.359 -42.520 -74.949  0.00  0.00    +0.000 A 
ATOM      7  C   UNL     1     -58.566 -42.375 -73.815  0.00  0.00    +0.000 A 
ATOM      8  C   UNL     1     -57.171 -42.247 -73.943  0.00  0.00    +0.000 A 
ATOM      9 CL   UNL     1     -56.301 -42.002 -72.472  0.00  0.00    +0.000 Cl
ATOM     10  C   UNL     1     -56.573 -42.274 -75.220  0.00  0.00    +0.000 A 
ATOM     11  C   UNL     1     -55.110 -42.180 -75.460  0.00  0.00    +0.000 A 
ATOM     12  O   UNL     1     -54.321 -42.500 -74.576  0.00  0.00    +0.000 OA
ATOM     13  C   UNL     1     -54.624 -41.701 -76.825  0.00  0.00    +0.000 A 
ATOM     14  H   UNL     1     -57.362 -42.460 -78.443  0.00  0.00    +0.000 HD
ENDROOT
BRANCH   1  15
ATOM     15  S   UNL     1     -55.202 -41.596 -79.608  0.00  0.00    +0.000 S 
ATOM     16  O   UNL     1     -56.593 -41.550 -80.180  0.00  0.00    +0.000 OA
BRANCH  15  17
ATOM     17  C   UNL     1     -54.359 -43.079 -80.254  0.00  0.00    +0.000 C 
BRANCH  17  21
ATOM     18  C   UNL     1     -50.946 -41.627 -83.867  0.00  0.00    +0.000 C 
ATOM     19  C   UNL     1     -51.995 -42.173 -82.977  0.00  0.00    +0.000 A 
ATOM     20  C   UNL     1     -52.317 -42.028 -81.647  0.00  0.00    +0.000 A 
ATOM     21  C   UNL     1     -53.480 -42.828 -81.458  0.00  0.00    +0.000 A 
ATOM     22  N   UNL     1     -53.812 -43.430 -82.613  0.00  0.00    +0.000 NA
ATOM     23  O   UNL     1     -52.888 -43.017 -83.554  0.00  0.00    +0.000 OA
ENDBRANCH  17  21
ENDBRANCH  15  17
ENDBRANCH   1  15
BRANCH  13  24
ATOM     24  C   UNL     1     -53.317 -40.941 -76.852  0.00  0.00    +0.000 C 
ATOM     25  O   UNL     1     -53.317 -39.712 -76.909  0.00  0.00    +0.000 OA
BRANCH  24  26
ATOM     26  C   UNL     1     -51.986 -41.693 -76.878  0.00  0.00    +0.000 C 
ATOM     27  C   UNL     1     -51.390 -41.742 -78.282  0.00  0.00    +0.000 C 
ATOM     28  C   UNL     1     -50.975 -41.101 -75.892  0.00  0.00    +0.000 C 
ENDBRANCH  24  26
ENDBRANCH  13  24
TORSDOF 5
