REMARK VINA RESULT:    -5.692     12.885     14.555
REMARK INTER + INTRA:          -8.482
REMARK INTER:                  -7.667
REMARK INTRA:                  -0.816
REMARK UNBOUND:                -1.127
REMARK  Name = 
REMARK  8 active torsions:
REMARK  status: ('A' for Active; 'I' for Inactive)
REMARK    1  A    between atoms: C_1  and  C_2
REMARK    2  A    between atoms: C_4  and  C_5
REMARK    3  A    between atoms: C_5  and  S_6
REMARK    4  A    between atoms: S_6  and  C_8
REMARK    5  A    between atoms: C_20  and  C_21
REMARK    6  A    between atoms: C_21  and  C_23
REMARK    7  A    between atoms: C_23  and  C_24
REMARK    8  A    between atoms: C_23  and  C_25
REMARK                            x       y       z     vdW  Elec       q    Type
REMARK                         _______ _______ _______ _____ _____    ______ ____
ROOT
ATOM      1  C   UNL     1     -56.002 -42.593 -77.882  0.00  0.00    +0.000 A 
ATOM      2  N   UNL     1     -55.271 -41.421 -77.714  0.00  0.00    +0.000 N 
ATOM      3  C   UNL     1     -53.979 -41.431 -77.153  0.00  0.00    +0.000 A 
ATOM      4  C   UNL     1     -53.070 -40.373 -77.347  0.00  0.00    +0.000 A 
ATOM      5 BR   UNL     1     -53.480 -38.938 -78.518  0.00  0.00    +0.000 Br
ATOM      6  C   UNL     1     -51.823 -40.372 -76.716  0.00  0.00    +0.000 A 
ATOM      7  C   UNL     1     -51.464 -41.429 -75.885  0.00  0.00    +0.000 A 
ATOM      8  C   UNL     1     -52.355 -42.500 -75.684  0.00  0.00    +0.000 A 
ATOM      9 CL   UNL     1     -51.770 -43.786 -74.691  0.00  0.00    +0.000 Cl
ATOM     10  C   UNL     1     -53.616 -42.498 -76.315  0.00  0.00    +0.000 A 
ATOM     11  C   UNL     1     -54.637 -43.562 -76.142  0.00  0.00    +0.000 A 
ATOM     12  O   UNL     1     -54.628 -44.265 -75.136  0.00  0.00    +0.000 OA
ATOM     13  C   UNL     1     -55.698 -43.738 -77.225  0.00  0.00    +0.000 A 
ATOM     14  H   UNL     1     -55.442 -40.715 -78.442  0.00  0.00    +0.000 HD
ENDROOT
BRANCH   1  15
ATOM     15  S   UNL     1     -57.236 -42.428 -79.226  0.00  0.00    +0.000 S 
ATOM     16  O   UNL     1     -56.553 -41.546 -80.235  0.00  0.00    +0.000 OA
BRANCH  15  17
ATOM     17  C   UNL     1     -58.583 -41.477 -78.444  0.00  0.00    +0.000 C 
BRANCH  17  21
ATOM     18  C   UNL     1     -62.699 -44.488 -77.552  0.00  0.00    +0.000 C 
ATOM     19  C   UNL     1     -61.644 -43.527 -77.942  0.00  0.00    +0.000 A 
ATOM     20  C   UNL     1     -60.371 -43.246 -77.501  0.00  0.00    +0.000 A 
ATOM     21  C   UNL     1     -59.902 -42.209 -78.359  0.00  0.00    +0.000 A 
ATOM     22  N   UNL     1     -60.859 -41.883 -79.245  0.00  0.00    +0.000 NA
ATOM     23  O   UNL     1     -61.937 -42.708 -78.984  0.00  0.00    +0.000 OA
ENDBRANCH  17  21
ENDBRANCH  15  17
ENDBRANCH   1  15
BRANCH  13  24
ATOM     24  C   UNL     1     -56.223 -45.140 -77.441  0.00  0.00    +0.000 C 
ATOM     25  O   UNL     1     -57.417 -45.385 -77.279  0.00  0.00    +0.000 OA
BRANCH  24  26
ATOM     26  C   UNL     1     -55.265 -46.278 -77.796  0.00  0.00    +0.000 C 
ATOM     27  C   UNL     1     -55.569 -47.544 -76.999  0.00  0.00    +0.000 C 
ATOM     28  C   UNL     1     -55.269 -46.581 -79.297  0.00  0.00    +0.000 C 
ENDBRANCH  24  26
ENDBRANCH  13  24
TORSDOF 5
