REMARK VINA RESULT:    -5.231     24.004     26.853
REMARK INTER + INTRA:          -7.802
REMARK INTER:                  -6.999
REMARK INTRA:                  -0.802
REMARK UNBOUND:                -1.042
REMARK  Name = 
REMARK  8 active torsions:
REMARK  status: ('A' for Active; 'I' for Inactive)
REMARK    1  A    between atoms: C_1  and  C_2
REMARK    2  A    between atoms: C_4  and  C_5
REMARK    3  A    between atoms: C_5  and  S_6
REMARK    4  A    between atoms: S_6  and  C_8
REMARK    5  A    between atoms: C_20  and  C_21
REMARK    6  A    between atoms: C_21  and  C_23
REMARK    7  A    between atoms: C_23  and  C_24
REMARK    8  A    between atoms: C_23  and  C_25
REMARK                            x       y       z     vdW  Elec       q    Type
REMARK                         _______ _______ _______ _____ _____    ______ ____
ROOT
ATOM      1  C   UNL     1     -66.768 -34.253 -86.043  0.00  0.00    +0.000 A 
ATOM      2  N   UNL     1     -66.699 -33.005 -86.654  0.00  0.00    +0.000 N 
ATOM      3  C   UNL     1     -67.438 -31.906 -86.175  0.00  0.00    +0.000 A 
ATOM      4  C   UNL     1     -67.091 -30.577 -86.484  0.00  0.00    +0.000 A 
ATOM      5 BR   UNL     1     -65.499 -30.181 -87.437  0.00  0.00    +0.000 Br
ATOM      6  C   UNL     1     -67.886 -29.509 -86.060  0.00  0.00    +0.000 A 
ATOM      7  C   UNL     1     -69.038 -29.752 -85.317  0.00  0.00    +0.000 A 
ATOM      8  C   UNL     1     -69.399 -31.072 -84.991  0.00  0.00    +0.000 A 
ATOM      9 CL   UNL     1     -70.807 -31.244 -84.006  0.00  0.00    +0.000 Cl
ATOM     10  C   UNL     1     -68.600 -32.151 -85.425  0.00  0.00    +0.000 A 
ATOM     11  C   UNL     1     -68.912 -33.579 -85.162  0.00  0.00    +0.000 A 
ATOM     12  O   UNL     1     -70.068 -33.925 -84.937  0.00  0.00    +0.000 OA
ATOM     13  C   UNL     1     -67.773 -34.593 -85.201  0.00  0.00    +0.000 A 
ATOM     14  H   UNL     1     -65.777 -32.788 -87.057  0.00  0.00    +0.000 HD
ENDROOT
BRANCH   1  15
ATOM     15  S   UNL     1     -65.254 -35.238 -86.353  0.00  0.00    +0.000 S 
ATOM     16  O   UNL     1     -64.161 -34.205 -86.421  0.00  0.00    +0.000 OA
BRANCH  15  17
ATOM     17  C   UNL     1     -65.524 -35.904 -88.031  0.00  0.00    +0.000 C 
BRANCH  17  21
ATOM     18  C   UNL     1     -62.614 -40.111 -88.826  0.00  0.00    +0.000 C 
ATOM     19  C   UNL     1     -63.331 -38.819 -88.747  0.00  0.00    +0.000 A 
ATOM     20  C   UNL     1     -64.445 -38.363 -88.080  0.00  0.00    +0.000 A 
ATOM     21  C   UNL     1     -64.555 -36.988 -88.439  0.00  0.00    +0.000 A 
ATOM     22  N   UNL     1     -63.568 -36.660 -89.291  0.00  0.00    +0.000 NA
ATOM     23  O   UNL     1     -62.809 -37.800 -89.476  0.00  0.00    +0.000 OA
ENDBRANCH  17  21
ENDBRANCH  15  17
ENDBRANCH   1  15
BRANCH  13  24
ATOM     24  C   UNL     1     -67.898 -35.791 -84.286  0.00  0.00    +0.000 C 
ATOM     25  O   UNL     1     -68.192 -36.894 -84.747  0.00  0.00    +0.000 OA
BRANCH  24  26
ATOM     26  C   UNL     1     -67.725 -35.631 -82.775  0.00  0.00    +0.000 C 
ATOM     27  C   UNL     1     -68.980 -36.051 -82.014  0.00  0.00    +0.000 C 
ATOM     28  C   UNL     1     -66.507 -36.399 -82.254  0.00  0.00    +0.000 C 
ENDBRANCH  24  26
ENDBRANCH  13  24
TORSDOF 5
