REMARK VINA RESULT:    -5.190     15.480     16.587
REMARK INTER + INTRA:          -7.047
REMARK INTER:                  -6.573
REMARK INTRA:                  -0.474
REMARK UNBOUND:                -0.644
REMARK  Name = 
REMARK  6 active torsions:
REMARK  status: ('A' for Active; 'I' for Inactive)
REMARK    1  A    between atoms: C_1  and  C_2
REMARK    2  A    between atoms: C_2  and  C_4
REMARK    3  A    between atoms: C_5  and  S_6
REMARK    4  A    between atoms: S_6  and  C_8
REMARK    5  A    between atoms: C_8  and  C_9
REMARK    6  A    between atoms: C_11  and  C_12
REMARK                            x       y       z     vdW  Elec       q    Type
REMARK                         _______ _______ _______ _____ _____    ______ ____
ROOT
ATOM      1  C   UNL     1     -56.531 -40.657 -61.281  0.00  0.00    +0.000 A 
ATOM      2  C   UNL     1     -55.871 -41.367 -62.223  0.00  0.00    +0.000 A 
ATOM      3  N   UNL     1     -55.192 -42.539 -61.954  0.00  0.00    +0.000 N 
ATOM      4  C   UNL     1     -54.994 -43.022 -60.650  0.00  0.00    +0.000 A 
ATOM      5  C   UNL     1     -54.272 -44.209 -60.422  0.00  0.00    +0.000 A 
ATOM      6 BR   UNL     1     -53.488 -45.170 -61.860  0.00  0.00    +0.000 Br
ATOM      7  C   UNL     1     -54.110 -44.718 -59.137  0.00  0.00    +0.000 A 
ATOM      8  C   UNL     1     -54.682 -44.045 -58.056  0.00  0.00    +0.000 A 
ATOM      9  C   UNL     1     -55.422 -42.875 -58.258  0.00  0.00    +0.000 A 
ATOM     10 CL   UNL     1     -56.047 -42.147 -56.818  0.00  0.00    +0.000 Cl
ATOM     11  C   UNL     1     -55.604 -42.374 -59.562  0.00  0.00    +0.000 A 
ATOM     12  C   UNL     1     -56.409 -41.158 -59.865  0.00  0.00    +0.000 A 
ATOM     13  O   UNL     1     -56.944 -40.541 -58.954  0.00  0.00    +0.000 OA
ATOM     14  H   UNL     1     -54.468 -42.793 -62.630  0.00  0.00    +0.000 HD
ENDROOT
BRANCH   1  16
ATOM     15  C   UNL     1     -56.629 -38.060 -61.475  0.00  0.00    +0.000 C 
ATOM     16  C   UNL     1     -57.323 -39.402 -61.553  0.00  0.00    +0.000 C 
ATOM     17  O   UNL     1     -58.524 -39.441 -61.822  0.00  0.00    +0.000 OA
ENDBRANCH   1  16
BRANCH   2  18
ATOM     18  S   UNL     1     -55.675 -40.741 -63.926  0.00  0.00    +0.000 S 
ATOM     19  O   UNL     1     -54.453 -41.466 -64.424  0.00  0.00    +0.000 OA
BRANCH  18  20
ATOM     20  C   UNL     1     -57.104 -41.566 -64.716  0.00  0.00    +0.000 C 
BRANCH  20  21
ATOM     21  C   UNL     1     -57.701 -42.593 -63.812  0.00  0.00    +0.000 A 
ATOM     22  C   UNL     1     -58.888 -42.522 -63.036  0.00  0.00    +0.000 A 
ATOM     23  C   UNL     1     -58.978 -43.749 -62.427  0.00  0.00    +0.000 A 
ATOM     24  C   UNL     1     -59.925 -44.371 -61.482  0.00  0.00    +0.000 C 
ATOM     25  O   UNL     1     -57.929 -44.518 -62.823  0.00  0.00    +0.000 OA
ATOM     26  N   UNL     1     -57.131 -43.801 -63.698  0.00  0.00    +0.000 NA
ENDBRANCH  20  21
ENDBRANCH  18  20
ENDBRANCH   2  18
TORSDOF 4
