REMARK VINA RESULT:    -6.635      3.461      5.479
REMARK INTER + INTRA:          -9.572
REMARK INTER:                  -8.733
REMARK INTRA:                  -0.839
REMARK UNBOUND:                -0.998
REMARK  Name = 
REMARK  6 active torsions:
REMARK  status: ('A' for Active; 'I' for Inactive)
REMARK    1  A    between atoms: C_1  and  C_2
REMARK    2  A    between atoms: C_4  and  C_5
REMARK    3  A    between atoms: C_5  and  S_6
REMARK    4  A    between atoms: S_6  and  C_8
REMARK    5  A    between atoms: C_20  and  C_21
REMARK    6  A    between atoms: C_21  and  C_23
REMARK                            x       y       z     vdW  Elec       q    Type
REMARK                         _______ _______ _______ _____ _____    ______ ____
ROOT
ATOM      1  C   UNL     1     -57.779 -41.047 -62.818  0.00  0.00    +0.000 A 
ATOM      2  N   UNL     1     -57.290 -39.786 -62.427  0.00  0.00    +0.000 N 
ATOM      3  C   UNL     1     -56.186 -39.196 -63.103  0.00  0.00    +0.000 A 
ATOM      4  C   UNL     1     -55.895 -37.821 -63.042  0.00  0.00    +0.000 A 
ATOM      5 BR   UNL     1     -57.074 -36.606 -62.186  0.00  0.00    +0.000 Br
ATOM      6  C   UNL     1     -54.735 -37.298 -63.633  0.00  0.00    +0.000 A 
ATOM      7  C   UNL     1     -53.863 -38.151 -64.319  0.00  0.00    +0.000 A 
ATOM      8  C   UNL     1     -54.132 -39.518 -64.394  0.00  0.00    +0.000 A 
ATOM      9 CL   UNL     1     -53.034 -40.473 -65.324  0.00  0.00    +0.000 Cl
ATOM     10  C   UNL     1     -55.277 -40.034 -63.768  0.00  0.00    +0.000 A 
ATOM     11  C   UNL     1     -55.599 -41.473 -63.721  0.00  0.00    +0.000 A 
ATOM     12  O   UNL     1     -54.724 -42.330 -63.716  0.00  0.00    +0.000 OA
ATOM     13  C   UNL     1     -57.041 -41.868 -63.597  0.00  0.00    +0.000 A 
ATOM     14  H   UNL     1     -58.048 -39.123 -62.215  0.00  0.00    +0.000 HD
ENDROOT
BRANCH   1  15
ATOM     15  S   UNL     1     -59.565 -41.212 -62.561  0.00  0.00    +0.000 S 
ATOM     16  O   UNL     1     -60.046 -39.796 -62.393  0.00  0.00    +0.000 OA
BRANCH  15  17
ATOM     17  C   UNL     1     -59.875 -42.079 -60.995  0.00  0.00    +0.000 C 
BRANCH  17  21
ATOM     18  C   UNL     1     -61.725 -46.851 -61.145  0.00  0.00    +0.000 C 
ATOM     19  C   UNL     1     -61.356 -45.434 -60.972  0.00  0.00    +0.000 A 
ATOM     20  C   UNL     1     -60.296 -44.655 -61.373  0.00  0.00    +0.000 A 
ATOM     21  C   UNL     1     -60.630 -43.352 -60.941  0.00  0.00    +0.000 A 
ATOM     22  N   UNL     1     -61.789 -43.364 -60.259  0.00  0.00    +0.000 NA
ATOM     23  O   UNL     1     -62.239 -44.668 -60.283  0.00  0.00    +0.000 OA
ENDBRANCH  17  21
ENDBRANCH  15  17
ENDBRANCH   1  15
BRANCH  13  24
ATOM     24  C   UNL     1     -57.433 -42.993 -64.493  0.00  0.00    +0.000 C 
ATOM     25  O   UNL     1     -57.446 -44.140 -64.079  0.00  0.00    +0.000 OA
BRANCH  24  26
ATOM     26  C   UNL     1     -57.850 -42.690 -65.875  0.00  0.00    +0.000 C 
ATOM     27  C   UNL     1     -57.826 -43.782 -66.913  0.00  0.00    +0.000 C 
ATOM     28  C   UNL     1     -56.849 -42.650 -67.005  0.00  0.00    +0.000 C 
ENDBRANCH  24  26
ENDBRANCH  13  24
TORSDOF 5
