REMARK VINA RESULT:    -5.990      2.829      4.463
REMARK INTER + INTRA:          -8.896
REMARK INTER:                  -8.337
REMARK INTRA:                  -0.559
REMARK UNBOUND:                -1.155
REMARK  Name = 
REMARK  6 active torsions:
REMARK  status: ('A' for Active; 'I' for Inactive)
REMARK    1  A    between atoms: C_1  and  C_2
REMARK    2  A    between atoms: C_4  and  C_5
REMARK    3  A    between atoms: C_5  and  S_6
REMARK    4  A    between atoms: S_6  and  C_8
REMARK    5  A    between atoms: C_20  and  C_21
REMARK    6  A    between atoms: C_21  and  C_23
REMARK                            x       y       z     vdW  Elec       q    Type
REMARK                         _______ _______ _______ _____ _____    ______ ____
ROOT
ATOM      1  C   UNL     1     -55.175 -41.248 -63.159  0.00  0.00    +0.000 A 
ATOM      2  N   UNL     1     -54.747 -42.580 -62.995  0.00  0.00    +0.000 N 
ATOM      3  C   UNL     1     -53.392 -42.939 -63.234  0.00  0.00    +0.000 A 
ATOM      4  C   UNL     1     -52.811 -44.118 -62.731  0.00  0.00    +0.000 A 
ATOM      5 BR   UNL     1     -53.757 -45.243 -61.532  0.00  0.00    +0.000 Br
ATOM      6  C   UNL     1     -51.505 -44.489 -63.081  0.00  0.00    +0.000 A 
ATOM      7  C   UNL     1     -50.752 -43.661 -63.922  0.00  0.00    +0.000 A 
ATOM      8  C   UNL     1     -51.306 -42.487 -64.431  0.00  0.00    +0.000 A 
ATOM      9 CL   UNL     1     -50.272 -41.500 -65.400  0.00  0.00    +0.000 Cl
ATOM     10  C   UNL     1     -52.627 -42.145 -64.102  0.00  0.00    +0.000 A 
ATOM     11  C   UNL     1     -53.325 -40.970 -64.659  0.00  0.00    +0.000 A 
ATOM     12  O   UNL     1     -53.069 -40.537 -65.776  0.00  0.00    +0.000 OA
ATOM     13  C   UNL     1     -54.428 -40.357 -63.847  0.00  0.00    +0.000 A 
ATOM     14  H   UNL     1     -55.151 -43.018 -62.156  0.00  0.00    +0.000 HD
ENDROOT
BRANCH   1  15
ATOM     15  S   UNL     1     -56.511 -40.801 -62.019  0.00  0.00    +0.000 S 
ATOM     16  O   UNL     1     -56.371 -41.778 -60.884  0.00  0.00    +0.000 OA
BRANCH  15  17
ATOM     17  C   UNL     1     -58.116 -41.115 -62.812  0.00  0.00    +0.000 C 
BRANCH  17  21
ATOM     18  C   UNL     1     -58.018 -44.128 -66.951  0.00  0.00    +0.000 C 
ATOM     19  C   UNL     1     -58.200 -43.153 -65.859  0.00  0.00    +0.000 A 
ATOM     20  C   UNL     1     -57.684 -43.011 -64.593  0.00  0.00    +0.000 A 
ATOM     21  C   UNL     1     -58.221 -41.791 -64.125  0.00  0.00    +0.000 A 
ATOM     22  N   UNL     1     -59.065 -41.269 -65.032  0.00  0.00    +0.000 NA
ATOM     23  O   UNL     1     -59.047 -42.124 -66.115  0.00  0.00    +0.000 OA
ENDBRANCH  17  21
ENDBRANCH  15  17
ENDBRANCH   1  15
BRANCH  13  24
ATOM     24  C   UNL     1     -54.389 -38.868 -63.812  0.00  0.00    +0.000 C 
ATOM     25  O   UNL     1     -53.355 -38.281 -63.542  0.00  0.00    +0.000 OA
BRANCH  24  26
ATOM     26  C   UNL     1     -55.610 -38.116 -64.157  0.00  0.00    +0.000 C 
ATOM     27  C   UNL     1     -55.528 -36.627 -64.373  0.00  0.00    +0.000 C 
ATOM     28  C   UNL     1     -56.247 -37.163 -63.173  0.00  0.00    +0.000 C 
ENDBRANCH  24  26
ENDBRANCH  13  24
TORSDOF 5
