REMARK VINA RESULT:    -5.345     15.384     16.955
REMARK INTER + INTRA:          -7.445
REMARK INTER:                  -6.757
REMARK INTRA:                  -0.687
REMARK UNBOUND:                -0.850
REMARK  Name = 
REMARK  6 active torsions:
REMARK  status: ('A' for Active; 'I' for Inactive)
REMARK    1  A    between atoms: C_1  and  C_2
REMARK    2  A    between atoms: C_2  and  C_4
REMARK    3  A    between atoms: C_5  and  S_6
REMARK    4  A    between atoms: S_6  and  C_8
REMARK    5  A    between atoms: C_8  and  C_9
REMARK    6  A    between atoms: C_11  and  C_12
REMARK                            x       y       z     vdW  Elec       q    Type
REMARK                         _______ _______ _______ _____ _____    ______ ____
ROOT
ATOM      1  C   UNL     1     -55.277 -44.269 -77.512  0.00  0.00    +0.000 A 
ATOM      2  C   UNL     1     -55.553 -43.156 -78.229  0.00  0.00    +0.000 A 
ATOM      3  N   UNL     1     -54.810 -41.998 -78.141  0.00  0.00    +0.000 N 
ATOM      4  C   UNL     1     -53.726 -41.843 -77.262  0.00  0.00    +0.000 A 
ATOM      5  C   UNL     1     -52.938 -40.680 -77.282  0.00  0.00    +0.000 A 
ATOM      6 BR   UNL     1     -53.351 -39.242 -78.458  0.00  0.00    +0.000 Br
ATOM      7  C   UNL     1     -51.828 -40.547 -76.453  0.00  0.00    +0.000 A 
ATOM      8  C   UNL     1     -51.487 -41.586 -75.592  0.00  0.00    +0.000 A 
ATOM      9  C   UNL     1     -52.238 -42.767 -75.571  0.00  0.00    +0.000 A 
ATOM     10 CL   UNL     1     -51.686 -43.973 -74.460  0.00  0.00    +0.000 Cl
ATOM     11  C   UNL     1     -53.347 -42.910 -76.428  0.00  0.00    +0.000 A 
ATOM     12  C   UNL     1     -54.182 -44.139 -76.485  0.00  0.00    +0.000 A 
ATOM     13  O   UNL     1     -54.019 -45.040 -75.669  0.00  0.00    +0.000 OA
ATOM     14  H   UNL     1     -55.265 -41.141 -78.454  0.00  0.00    +0.000 HD
ENDROOT
BRANCH   1  16
ATOM     15  C   UNL     1     -55.422 -46.616 -78.597  0.00  0.00    +0.000 C 
ATOM     16  C   UNL     1     -55.993 -45.583 -77.648  0.00  0.00    +0.000 C 
ATOM     17  O   UNL     1     -57.040 -45.821 -77.049  0.00  0.00    +0.000 OA
ENDBRANCH   1  16
BRANCH   2  18
ATOM     18  S   UNL     1     -57.043 -43.058 -79.274  0.00  0.00    +0.000 S 
ATOM     19  O   UNL     1     -58.106 -42.569 -78.327  0.00  0.00    +0.000 OA
BRANCH  18  20
ATOM     20  C   UNL     1     -56.587 -41.623 -80.299  0.00  0.00    +0.000 C 
BRANCH  20  21
ATOM     21  C   UNL     1     -57.382 -41.555 -81.561  0.00  0.00    +0.000 A 
ATOM     22  C   UNL     1     -58.730 -41.935 -81.788  0.00  0.00    +0.000 A 
ATOM     23  C   UNL     1     -58.978 -41.572 -83.089  0.00  0.00    +0.000 A 
ATOM     24  C   UNL     1     -60.154 -41.641 -83.975  0.00  0.00    +0.000 C 
ATOM     25  O   UNL     1     -57.853 -41.021 -83.617  0.00  0.00    +0.000 OA
ATOM     26  N   UNL     1     -56.852 -41.002 -82.661  0.00  0.00    +0.000 NA
ENDBRANCH  20  21
ENDBRANCH  18  20
ENDBRANCH   2  18
TORSDOF 4
