REMARK VINA RESULT:    -5.296     20.974     22.886
REMARK INTER + INTRA:          -7.270
REMARK INTER:                  -6.742
REMARK INTRA:                  -0.528
REMARK UNBOUND:                -0.736
REMARK  Name = 
REMARK  6 active torsions:
REMARK  status: ('A' for Active; 'I' for Inactive)
REMARK    1  A    between atoms: C_1  and  C_2
REMARK    2  A    between atoms: C_2  and  C_4
REMARK    3  A    between atoms: C_5  and  S_6
REMARK    4  A    between atoms: S_6  and  C_8
REMARK    5  A    between atoms: C_8  and  C_9
REMARK    6  A    between atoms: C_11  and  C_12
REMARK                            x       y       z     vdW  Elec       q    Type
REMARK                         _______ _______ _______ _____ _____    ______ ____
ROOT
ATOM      1  C   UNL     1     -49.695 -25.431 -62.177  0.00  0.00    +0.000 A 
ATOM      2  C   UNL     1     -48.546 -25.799 -62.786  0.00  0.00    +0.000 A 
ATOM      3  N   UNL     1     -47.995 -25.097 -63.845  0.00  0.00    +0.000 N 
ATOM      4  C   UNL     1     -48.727 -24.123 -64.547  0.00  0.00    +0.000 A 
ATOM      5  C   UNL     1     -48.251 -23.589 -65.757  0.00  0.00    +0.000 A 
ATOM      6 BR   UNL     1     -46.632 -24.214 -66.528  0.00  0.00    +0.000 Br
ATOM      7  C   UNL     1     -48.963 -22.601 -66.430  0.00  0.00    +0.000 A 
ATOM      8  C   UNL     1     -50.161 -22.130 -65.895  0.00  0.00    +0.000 A 
ATOM      9  C   UNL     1     -50.639 -22.627 -64.676  0.00  0.00    +0.000 A 
ATOM     10 CL   UNL     1     -52.166 -22.014 -64.152  0.00  0.00    +0.000 Cl
ATOM     11  C   UNL     1     -49.906 -23.605 -63.985  0.00  0.00    +0.000 A 
ATOM     12  C   UNL     1     -50.293 -24.135 -62.649  0.00  0.00    +0.000 A 
ATOM     13  O   UNL     1     -51.051 -23.509 -61.919  0.00  0.00    +0.000 OA
ATOM     14  H   UNL     1     -47.377 -25.658 -64.437  0.00  0.00    +0.000 HD
ENDROOT
BRANCH   1  16
ATOM     15  C   UNL     1     -49.868 -26.102 -59.663  0.00  0.00    +0.000 C 
ATOM     16  C   UNL     1     -50.385 -26.200 -61.086  0.00  0.00    +0.000 C 
ATOM     17  O   UNL     1     -51.360 -26.907 -61.331  0.00  0.00    +0.000 OA
ENDBRANCH   1  16
BRANCH   2  18
ATOM     18  S   UNL     1     -47.681 -27.347 -62.362  0.00  0.00    +0.000 S 
ATOM     19  O   UNL     1     -48.665 -28.412 -62.763  0.00  0.00    +0.000 OA
BRANCH  18  20
ATOM     20  C   UNL     1     -46.408 -27.294 -63.684  0.00  0.00    +0.000 C 
BRANCH  20  21
ATOM     21  C   UNL     1     -45.485 -28.470 -63.707  0.00  0.00    +0.000 A 
ATOM     22  C   UNL     1     -45.658 -29.797 -63.234  0.00  0.00    +0.000 A 
ATOM     23  C   UNL     1     -44.519 -30.459 -63.626  0.00  0.00    +0.000 A 
ATOM     24  C   UNL     1     -44.023 -31.842 -63.493  0.00  0.00    +0.000 C 
ATOM     25  O   UNL     1     -43.712 -29.595 -64.294  0.00  0.00    +0.000 OA
ATOM     26  N   UNL     1     -44.312 -28.352 -64.351  0.00  0.00    +0.000 NA
ENDBRANCH  20  21
ENDBRANCH  18  20
ENDBRANCH   2  18
TORSDOF 4
