REMARK VINA RESULT:    -5.275     14.620     17.268
REMARK INTER + INTRA:          -7.756
REMARK INTER:                  -6.753
REMARK INTRA:                  -1.003
REMARK UNBOUND:                -0.940
REMARK  Name = 
REMARK  6 active torsions:
REMARK  status: ('A' for Active; 'I' for Inactive)
REMARK    1  A    between atoms: C_1  and  C_2
REMARK    2  A    between atoms: C_4  and  C_5
REMARK    3  A    between atoms: C_5  and  S_6
REMARK    4  A    between atoms: S_6  and  C_8
REMARK    5  A    between atoms: C_20  and  C_21
REMARK    6  A    between atoms: C_21  and  C_23
REMARK                            x       y       z     vdW  Elec       q    Type
REMARK                         _______ _______ _______ _____ _____    ______ ____
ROOT
ATOM      1  C   UNL     1     -55.001 -41.681 -79.828  0.00  0.00    +0.000 A 
ATOM      2  N   UNL     1     -56.202 -41.925 -80.522  0.00  0.00    +0.000 N 
ATOM      3  C   UNL     1     -57.456 -41.812 -79.860  0.00  0.00    +0.000 A 
ATOM      4  C   UNL     1     -58.675 -41.654 -80.545  0.00  0.00    +0.000 A 
ATOM      5 BR   UNL     1     -58.715 -41.397 -82.424  0.00  0.00    +0.000 Br
ATOM      6  C   UNL     1     -59.898 -41.658 -79.860  0.00  0.00    +0.000 A 
ATOM      7  C   UNL     1     -59.911 -41.793 -78.467  0.00  0.00    +0.000 A 
ATOM      8  C   UNL     1     -58.715 -41.949 -77.766  0.00  0.00    +0.000 A 
ATOM      9 CL   UNL     1     -58.833 -42.036 -76.045  0.00  0.00    +0.000 Cl
ATOM     10  C   UNL     1     -57.500 -41.980 -78.467  0.00  0.00    +0.000 A 
ATOM     11  C   UNL     1     -56.196 -42.226 -77.822  0.00  0.00    +0.000 A 
ATOM     12  O   UNL     1     -56.093 -42.921 -76.818  0.00  0.00    +0.000 OA
ATOM     13  C   UNL     1     -54.969 -41.663 -78.477  0.00  0.00    +0.000 A 
ATOM     14  H   UNL     1     -56.195 -41.518 -81.467  0.00  0.00    +0.000 HD
ENDROOT
BRANCH   1  15
ATOM     15  S   UNL     1     -53.712 -40.983 -80.893  0.00  0.00    +0.000 S 
ATOM     16  O   UNL     1     -54.261 -39.645 -81.308  0.00  0.00    +0.000 OA
BRANCH  15  17
ATOM     17  C   UNL     1     -53.550 -41.994 -82.393  0.00  0.00    +0.000 C 
BRANCH  17  21
ATOM     18  C   UNL     1     -54.813 -40.429 -87.102  0.00  0.00    +0.000 C 
ATOM     19  C   UNL     1     -54.645 -40.963 -85.737  0.00  0.00    +0.000 A 
ATOM     20  C   UNL     1     -53.598 -41.034 -84.849  0.00  0.00    +0.000 A 
ATOM     21  C   UNL     1     -54.163 -41.590 -83.679  0.00  0.00    +0.000 A 
ATOM     22  N   UNL     1     -55.456 -41.899 -83.881  0.00  0.00    +0.000 NA
ATOM     23  O   UNL     1     -55.752 -41.503 -85.168  0.00  0.00    +0.000 OA
ENDBRANCH  17  21
ENDBRANCH  15  17
ENDBRANCH   1  15
BRANCH  13  24
ATOM     24  C   UNL     1     -54.017 -41.029 -77.522  0.00  0.00    +0.000 C 
ATOM     25  O   UNL     1     -54.258 -39.936 -77.040  0.00  0.00    +0.000 OA
BRANCH  24  26
ATOM     26  C   UNL     1     -52.801 -41.769 -77.134  0.00  0.00    +0.000 C 
ATOM     27  C   UNL     1     -51.716 -41.061 -76.364  0.00  0.00    +0.000 C 
ATOM     28  C   UNL     1     -51.468 -41.479 -77.781  0.00  0.00    +0.000 C 
ENDBRANCH  24  26
ENDBRANCH  13  24
TORSDOF 5
