REMARK VINA RESULT:    -5.775      9.302     12.651
REMARK INTER + INTRA:          -8.222
REMARK INTER:                  -7.449
REMARK INTRA:                  -0.773
REMARK UNBOUND:                -0.760
REMARK  Name = 
REMARK  8 active torsions:
REMARK  status: ('A' for Active; 'I' for Inactive)
REMARK    1  A    between atoms: C_1  and  C_2
REMARK    2  A    between atoms: C_4  and  C_5
REMARK    3  A    between atoms: C_5  and  S_6
REMARK    4  A    between atoms: S_6  and  C_8
REMARK    5  A    between atoms: C_20  and  C_21
REMARK    6  A    between atoms: C_21  and  C_23
REMARK    7  A    between atoms: C_23  and  C_24
REMARK    8  A    between atoms: C_23  and  C_25
REMARK                            x       y       z     vdW  Elec       q    Type
REMARK                         _______ _______ _______ _____ _____    ______ ____
ROOT
ATOM      1  C   UNL     1     -63.869 -46.315 -57.525  0.00  0.00    +0.000 A 
ATOM      2  N   UNL     1     -62.863 -45.598 -56.884  0.00  0.00    +0.000 N 
ATOM      3  C   UNL     1     -61.961 -44.789 -57.601  0.00  0.00    +0.000 A 
ATOM      4  C   UNL     1     -61.229 -43.756 -56.986  0.00  0.00    +0.000 A 
ATOM      5 BR   UNL     1     -61.539 -43.285 -55.174  0.00  0.00    +0.000 Br
ATOM      6  C   UNL     1     -60.283 -43.019 -57.704  0.00  0.00    +0.000 A 
ATOM      7  C   UNL     1     -60.058 -43.301 -59.048  0.00  0.00    +0.000 A 
ATOM      8  C   UNL     1     -60.784 -44.324 -59.684  0.00  0.00    +0.000 A 
ATOM      9 CL   UNL     1     -60.470 -44.532 -61.369  0.00  0.00    +0.000 Cl
ATOM     10  C   UNL     1     -61.734 -45.072 -58.958  0.00  0.00    +0.000 A 
ATOM     11  C   UNL     1     -62.527 -46.192 -59.527  0.00  0.00    +0.000 A 
ATOM     12  O   UNL     1     -62.111 -46.804 -60.507  0.00  0.00    +0.000 OA
ATOM     13  C   UNL     1     -63.844 -46.568 -58.855  0.00  0.00    +0.000 A 
ATOM     14  H   UNL     1     -63.122 -45.264 -55.945  0.00  0.00    +0.000 HD
ENDROOT
BRANCH   1  15
ATOM     15  S   UNL     1     -65.275 -46.654 -56.399  0.00  0.00    +0.000 S 
ATOM     16  O   UNL     1     -65.968 -45.323 -56.279  0.00  0.00    +0.000 OA
BRANCH  15  17
ATOM     17  C   UNL     1     -64.459 -47.025 -54.809  0.00  0.00    +0.000 C 
BRANCH  17  21
ATOM     18  C   UNL     1     -64.933 -51.526 -52.297  0.00  0.00    +0.000 C 
ATOM     19  C   UNL     1     -64.964 -50.299 -53.122  0.00  0.00    +0.000 A 
ATOM     20  C   UNL     1     -64.276 -49.107 -53.123  0.00  0.00    +0.000 A 
ATOM     21  C   UNL     1     -64.800 -48.377 -54.229  0.00  0.00    +0.000 A 
ATOM     22  N   UNL     1     -65.762 -49.095 -54.834  0.00  0.00    +0.000 NA
ATOM     23  O   UNL     1     -65.857 -50.290 -54.145  0.00  0.00    +0.000 OA
ENDBRANCH  17  21
ENDBRANCH  15  17
ENDBRANCH   1  15
BRANCH  13  24
ATOM     24  C   UNL     1     -64.930 -47.122 -59.750  0.00  0.00    +0.000 C 
ATOM     25  O   UNL     1     -64.836 -48.261 -60.205  0.00  0.00    +0.000 OA
BRANCH  24  26
ATOM     26  C   UNL     1     -66.120 -46.250 -60.151  0.00  0.00    +0.000 C 
ATOM     27  C   UNL     1     -67.423 -46.752 -59.534  0.00  0.00    +0.000 C 
ATOM     28  C   UNL     1     -65.896 -44.778 -59.795  0.00  0.00    +0.000 C 
ENDBRANCH  24  26
ENDBRANCH  13  24
TORSDOF 5
