REMARK VINA RESULT:    -6.300      3.616      7.500
REMARK INTER + INTRA:          -9.066
REMARK INTER:                  -8.054
REMARK INTRA:                  -1.012
REMARK UNBOUND:                -0.925
REMARK  Name = 
REMARK  8 active torsions:
REMARK  status: ('A' for Active; 'I' for Inactive)
REMARK    1  A    between atoms: C_1  and  C_2
REMARK    2  A    between atoms: C_4  and  C_5
REMARK    3  A    between atoms: C_5  and  S_6
REMARK    4  A    between atoms: S_6  and  C_8
REMARK    5  A    between atoms: C_20  and  C_21
REMARK    6  A    between atoms: C_21  and  C_23
REMARK    7  A    between atoms: C_23  and  C_24
REMARK    8  A    between atoms: C_23  and  C_25
REMARK                            x       y       z     vdW  Elec       q    Type
REMARK                         _______ _______ _______ _____ _____    ______ ____
ROOT
ATOM      1  C   UNL     1     -53.825 -41.862 -78.448  0.00  0.00    +0.000 A 
ATOM      2  N   UNL     1     -55.120 -42.374 -78.467  0.00  0.00    +0.000 N 
ATOM      3  C   UNL     1     -55.929 -42.385 -77.310  0.00  0.00    +0.000 A 
ATOM      4  C   UNL     1     -57.329 -42.525 -77.379  0.00  0.00    +0.000 A 
ATOM      5 CL   UNL     1     -58.142 -42.529 -78.903  0.00  0.00    +0.000 Cl
ATOM      6  C   UNL     1     -58.097 -42.638 -76.220  0.00  0.00    +0.000 A 
ATOM      7  C   UNL     1     -57.472 -42.608 -74.972  0.00  0.00    +0.000 A 
ATOM      8  C   UNL     1     -56.082 -42.453 -74.883  0.00  0.00    +0.000 A 
ATOM      9 CL   UNL     1     -55.434 -42.363 -73.286  0.00  0.00    +0.000 Cl
ATOM     10  C   UNL     1     -55.313 -42.355 -76.052  0.00  0.00    +0.000 A 
ATOM     11  C   UNL     1     -53.830 -42.269 -76.081  0.00  0.00    +0.000 A 
ATOM     12  O   UNL     1     -53.185 -42.766 -75.165  0.00  0.00    +0.000 OA
ATOM     13  C   UNL     1     -53.142 -41.647 -77.289  0.00  0.00    +0.000 A 
ATOM     14  H   UNL     1     -55.617 -42.204 -79.351  0.00  0.00    +0.000 HD
ENDROOT
BRANCH   1  15
ATOM     15  S   UNL     1     -53.306 -41.309 -80.123  0.00  0.00    +0.000 S 
ATOM     16  O   UNL     1     -53.729 -39.866 -80.168  0.00  0.00    +0.000 OA
BRANCH  15  17
ATOM     17  C   UNL     1     -54.435 -42.249 -81.230  0.00  0.00    +0.000 C 
BRANCH  17  21
ATOM     18  C   UNL     1     -57.379 -39.546 -84.510  0.00  0.00    +0.000 C 
ATOM     19  C   UNL     1     -56.377 -40.264 -83.693  0.00  0.00    +0.000 A 
ATOM     20  C   UNL     1     -56.384 -40.887 -82.468  0.00  0.00    +0.000 A 
ATOM     21  C   UNL     1     -55.072 -41.417 -82.315  0.00  0.00    +0.000 A 
ATOM     22  N   UNL     1     -54.321 -41.093 -83.381  0.00  0.00    +0.000 NA
ATOM     23  O   UNL     1     -55.139 -40.381 -84.237  0.00  0.00    +0.000 OA
ENDBRANCH  17  21
ENDBRANCH  15  17
ENDBRANCH   1  15
BRANCH  13  24
ATOM     24  C   UNL     1     -51.861 -40.901 -76.974  0.00  0.00    +0.000 C 
ATOM     25  O   UNL     1     -50.768 -41.456 -77.148  0.00  0.00    +0.000 OA
BRANCH  24  26
ATOM     26  C   UNL     1     -51.860 -39.539 -76.307  0.00  0.00    +0.000 C 
ATOM     27  C   UNL     1     -50.448 -39.175 -75.886  0.00  0.00    +0.000 C 
ATOM     28  C   UNL     1     -52.527 -38.483 -77.181  0.00  0.00    +0.000 C 
ENDBRANCH  24  26
ENDBRANCH  13  24
TORSDOF 5
