REMARK VINA RESULT:    -6.174     13.074     15.540
REMARK INTER + INTRA:          -9.020
REMARK INTER:                  -7.757
REMARK INTRA:                  -1.263
REMARK UNBOUND:                -1.042
REMARK  Name = 
REMARK  8 active torsions:
REMARK  status: ('A' for Active; 'I' for Inactive)
REMARK    1  A    between atoms: C_1  and  C_2
REMARK    2  A    between atoms: C_4  and  C_5
REMARK    3  A    between atoms: C_5  and  S_6
REMARK    4  A    between atoms: S_6  and  C_8
REMARK    5  A    between atoms: C_20  and  C_21
REMARK    6  A    between atoms: C_21  and  C_23
REMARK    7  A    between atoms: C_23  and  C_24
REMARK    8  A    between atoms: C_23  and  C_25
REMARK                            x       y       z     vdW  Elec       q    Type
REMARK                         _______ _______ _______ _____ _____    ______ ____
ROOT
ATOM      1  C   UNL     1     -54.740 -43.217 -79.979  0.00  0.00    +0.000 A 
ATOM      2  N   UNL     1     -54.819 -43.741 -78.692  0.00  0.00    +0.000 N 
ATOM      3  C   UNL     1     -54.065 -43.205 -77.629  0.00  0.00    +0.000 A 
ATOM      4  C   UNL     1     -54.415 -43.415 -76.282  0.00  0.00    +0.000 A 
ATOM      5 BR   UNL     1     -56.026 -44.303 -75.820  0.00  0.00    +0.000 Br
ATOM      6  C   UNL     1     -53.606 -42.937 -75.247  0.00  0.00    +0.000 A 
ATOM      7  C   UNL     1     -52.439 -42.239 -75.542  0.00  0.00    +0.000 A 
ATOM      8  C   UNL     1     -52.075 -42.012 -76.882  0.00  0.00    +0.000 A 
ATOM      9 CL   UNL     1     -50.646 -41.073 -77.123  0.00  0.00    +0.000 Cl
ATOM     10  C   UNL     1     -52.887 -42.500 -77.927  0.00  0.00    +0.000 A 
ATOM     11  C   UNL     1     -52.575 -42.341 -79.371  0.00  0.00    +0.000 A 
ATOM     12  O   UNL     1     -51.415 -42.167 -79.733  0.00  0.00    +0.000 OA
ATOM     13  C   UNL     1     -53.718 -42.423 -80.378  0.00  0.00    +0.000 A 
ATOM     14  H   UNL     1     -55.749 -44.107 -78.446  0.00  0.00    +0.000 HD
ENDROOT
BRANCH   1  15
ATOM     15  S   UNL     1     -56.264 -43.559 -80.937  0.00  0.00    +0.000 S 
ATOM     16  O   UNL     1     -55.801 -43.537 -82.369  0.00  0.00    +0.000 OA
BRANCH  15  17
ATOM     17  C   UNL     1     -57.289 -42.079 -80.638  0.00  0.00    +0.000 C 
BRANCH  17  21
ATOM     18  C   UNL     1     -57.571 -40.601 -75.684  0.00  0.00    +0.000 C 
ATOM     19  C   UNL     1     -57.660 -41.137 -77.060  0.00  0.00    +0.000 A 
ATOM     20  C   UNL     1     -56.999 -40.896 -78.244  0.00  0.00    +0.000 A 
ATOM     21  C   UNL     1     -57.578 -41.800 -79.181  0.00  0.00    +0.000 A 
ATOM     22  N   UNL     1     -58.544 -42.518 -78.584  0.00  0.00    +0.000 NA
ATOM     23  O   UNL     1     -58.588 -42.105 -77.266  0.00  0.00    +0.000 OA
ENDBRANCH  17  21
ENDBRANCH  15  17
ENDBRANCH   1  15
BRANCH  13  24
ATOM     24  C   UNL     1     -53.577 -41.595 -81.635  0.00  0.00    +0.000 C 
ATOM     25  O   UNL     1     -53.019 -42.065 -82.626  0.00  0.00    +0.000 OA
BRANCH  24  26
ATOM     26  C   UNL     1     -54.065 -40.146 -81.666  0.00  0.00    +0.000 C 
ATOM     27  C   UNL     1     -55.331 -39.993 -82.504  0.00  0.00    +0.000 C 
ATOM     28  C   UNL     1     -54.289 -39.588 -80.257  0.00  0.00    +0.000 C 
ENDBRANCH  24  26
ENDBRANCH  13  24
TORSDOF 5
