REMARK  Name = 
REMARK  6 active torsions:
REMARK  status: ('A' for Active; 'I' for Inactive)
REMARK    1  A    between atoms: C_1  and  C_2
REMARK    2  A    between atoms: C_2  and  C_4
REMARK    3  A    between atoms: C_5  and  S_6
REMARK    4  A    between atoms: S_6  and  C_8
REMARK    5  A    between atoms: C_8  and  C_9
REMARK    6  A    between atoms: C_11  and  C_12
REMARK                            x       y       z     vdW  Elec       q    Type
REMARK                         _______ _______ _______ _____ _____    ______ ____
ROOT
ATOM      1  C   UNL     1       3.177  -1.033  -0.697  0.00  0.00    +0.000 A 
ATOM      2  C   UNL     1       2.827  -1.438  -1.938  0.00  0.00    +0.000 A 
ATOM      3  N   UNL     1       3.489  -2.431  -2.633  0.00  0.00    +0.000 N 
ATOM      4  C   UNL     1       4.681  -3.014  -2.174  0.00  0.00    +0.000 A 
ATOM      5  C   UNL     1       5.343  -3.994  -2.940  0.00  0.00    +0.000 A 
ATOM      6 BR   UNL     1       4.687  -4.507  -4.647  0.00  0.00    +0.000 Br
ATOM      7  C   UNL     1       6.497  -4.612  -2.470  0.00  0.00    +0.000 A 
ATOM      8  C   UNL     1       7.001  -4.266  -1.218  0.00  0.00    +0.000 A 
ATOM      9  C   UNL     1       6.346  -3.313  -0.428  0.00  0.00    +0.000 A 
ATOM     10 CL   UNL     1       7.099  -2.983   1.094  0.00  0.00    +0.000 Cl
ATOM     11  C   UNL     1       5.169  -2.696  -0.896  0.00  0.00    +0.000 A 
ATOM     12  C   UNL     1       4.407  -1.679  -0.112  0.00  0.00    +0.000 A 
ATOM     13  O   UNL     1       4.805  -1.336   0.995  0.00  0.00    +0.000 OA
ATOM     14  H   UNL     1       3.382  -2.399  -3.649  0.00  0.00    +0.000 HD
ENDROOT
BRANCH   1  16
ATOM     15  C   UNL     1       2.585   0.049   1.598  0.00  0.00    +0.000 C 
ATOM     16  C   UNL     1       2.449   0.025   0.091  0.00  0.00    +0.000 C 
ATOM     17  O   UNL     1       1.747   0.871  -0.457  0.00  0.00    +0.000 OA
ENDBRANCH   1  16
BRANCH   2  18
ATOM     18  S   UNL     1       1.524  -0.582  -2.884  0.00  0.00    +0.000 S 
ATOM     19  O   UNL     1       2.236  -0.140  -4.135  0.00  0.00    +0.000 OA
BRANCH  18  20
ATOM     20  C   UNL     1       0.511  -2.027  -3.364  0.00  0.00    +0.000 C 
BRANCH  20  21
ATOM     21  C   UNL     1      -0.708  -1.636  -4.133  0.00  0.00    +0.000 A 
ATOM     22  C   UNL     1      -0.880  -0.643  -5.133  0.00  0.00    +0.000 A 
ATOM     23  C   UNL     1      -2.205  -0.730  -5.484  0.00  0.00    +0.000 A 
ATOM     24  C   UNL     1      -3.082   0.016  -6.404  0.00  0.00    +0.000 C 
ATOM     25  O   UNL     1      -2.784  -1.739  -4.783  0.00  0.00    +0.000 OA
ATOM     26  N   UNL     1      -1.850  -2.315  -3.941  0.00  0.00    +0.000 NA
ENDBRANCH  20  21
ENDBRANCH  18  20
ENDBRANCH   2  18
TORSDOF 4
