REMARK VINA RESULT:    -6.679     11.044     13.485
REMARK INTER + INTRA:          -9.539
REMARK INTER:                  -8.687
REMARK INTRA:                  -0.851
REMARK UNBOUND:                -0.908
REMARK  Name = 
REMARK  6 active torsions:
REMARK  status: ('A' for Active; 'I' for Inactive)
REMARK    1  A    between atoms: C_1  and  C_2
REMARK    2  A    between atoms: C_4  and  C_5
REMARK    3  A    between atoms: C_5  and  S_6
REMARK    4  A    between atoms: S_6  and  C_8
REMARK    5  A    between atoms: C_20  and  C_21
REMARK    6  A    between atoms: C_21  and  C_23
REMARK                            x       y       z     vdW  Elec       q    Type
REMARK                         _______ _______ _______ _____ _____    ______ ____
ROOT
ATOM      1  C   UNL     1     -57.731 -40.964 -62.755  0.00  0.00    +0.000 A 
ATOM      2  N   UNL     1     -57.227 -39.700 -62.393  0.00  0.00    +0.000 N 
ATOM      3  C   UNL     1     -56.127 -39.132 -63.093  0.00  0.00    +0.000 A 
ATOM      4  C   UNL     1     -55.823 -37.758 -63.061  0.00  0.00    +0.000 A 
ATOM      5 BR   UNL     1     -56.983 -36.518 -62.215  0.00  0.00    +0.000 Br
ATOM      6  C   UNL     1     -54.667 -37.256 -63.675  0.00  0.00    +0.000 A 
ATOM      7  C   UNL     1     -53.810 -38.129 -64.355  0.00  0.00    +0.000 A 
ATOM      8  C   UNL     1     -54.091 -39.495 -64.401  0.00  0.00    +0.000 A 
ATOM      9 CL   UNL     1     -53.011 -40.476 -65.325  0.00  0.00    +0.000 Cl
ATOM     10  C   UNL     1     -55.233 -39.989 -63.753  0.00  0.00    +0.000 A 
ATOM     11  C   UNL     1     -55.565 -41.425 -63.675  0.00  0.00    +0.000 A 
ATOM     12  O   UNL     1     -54.697 -42.288 -63.664  0.00  0.00    +0.000 OA
ATOM     13  C   UNL     1     -57.009 -41.805 -63.527  0.00  0.00    +0.000 A 
ATOM     14  H   UNL     1     -57.977 -39.026 -62.185  0.00  0.00    +0.000 HD
ENDROOT
BRANCH   1  15
ATOM     15  S   UNL     1     -59.516 -41.109 -62.474  0.00  0.00    +0.000 S 
ATOM     16  O   UNL     1     -59.976 -39.689 -62.287  0.00  0.00    +0.000 OA
BRANCH  15  17
ATOM     17  C   UNL     1     -59.814 -41.987 -60.912  0.00  0.00    +0.000 C 
BRANCH  17  21
ATOM     18  C   UNL     1     -61.711 -46.740 -61.077  0.00  0.00    +0.000 C 
ATOM     19  C   UNL     1     -61.327 -45.328 -60.898  0.00  0.00    +0.000 A 
ATOM     20  C   UNL     1     -60.263 -44.556 -61.303  0.00  0.00    +0.000 A 
ATOM     21  C   UNL     1     -60.581 -43.253 -60.860  0.00  0.00    +0.000 A 
ATOM     22  N   UNL     1     -61.734 -43.258 -60.168  0.00  0.00    +0.000 NA
ATOM     23  O   UNL     1     -62.196 -44.557 -60.197  0.00  0.00    +0.000 OA
ENDBRANCH  17  21
ENDBRANCH  15  17
ENDBRANCH   1  15
BRANCH  13  24
ATOM     24  C   UNL     1     -57.420 -42.944 -64.397  0.00  0.00    +0.000 C 
ATOM     25  O   UNL     1     -57.442 -44.081 -63.960  0.00  0.00    +0.000 OA
BRANCH  24  26
ATOM     26  C   UNL     1     -57.847 -42.663 -65.781  0.00  0.00    +0.000 C 
ATOM     27  C   UNL     1     -57.849 -43.777 -66.796  0.00  0.00    +0.000 C 
ATOM     28  C   UNL     1     -56.855 -42.662 -66.921  0.00  0.00    +0.000 C 
ENDBRANCH  24  26
ENDBRANCH  13  24
TORSDOF 5
