REMARK VINA RESULT:    -5.839     13.586     14.813
REMARK INTER + INTRA:          -8.240
REMARK INTER:                  -7.067
REMARK INTRA:                  -1.173
REMARK UNBOUND:                -1.035
REMARK  Name = 
REMARK  6 active torsions:
REMARK  status: ('A' for Active; 'I' for Inactive)
REMARK    1  A    between atoms: C_1  and  C_2
REMARK    2  A    between atoms: C_2  and  C_4
REMARK    3  A    between atoms: C_5  and  S_6
REMARK    4  A    between atoms: S_6  and  C_8
REMARK    5  A    between atoms: C_8  and  C_9
REMARK    6  A    between atoms: C_11  and  C_12
REMARK                            x       y       z     vdW  Elec       q    Type
REMARK                         _______ _______ _______ _____ _____    ______ ____
ROOT
ATOM      1  C   UNL     1     -56.144 -41.930 -75.555  0.00  0.00    +0.000 A 
ATOM      2  C   UNL     1     -56.755 -41.539 -76.698  0.00  0.00    +0.000 A 
ATOM      3  N   UNL     1     -56.025 -41.290 -77.841  0.00  0.00    +0.000 N 
ATOM      4  C   UNL     1     -54.640 -41.455 -77.937  0.00  0.00    +0.000 A 
ATOM      5  C   UNL     1     -53.953 -41.176 -79.131  0.00  0.00    +0.000 A 
ATOM      6 BR   UNL     1     -54.892 -40.663 -80.701  0.00  0.00    +0.000 Br
ATOM      7  C   UNL     1     -52.564 -41.271 -79.207  0.00  0.00    +0.000 A 
ATOM      8  C   UNL     1     -51.835 -41.635 -78.077  0.00  0.00    +0.000 A 
ATOM      9  C   UNL     1     -52.488 -41.912 -76.877  0.00  0.00    +0.000 A 
ATOM     10 CL   UNL     1     -51.455 -42.327 -75.550  0.00  0.00    +0.000 Cl
ATOM     11  C   UNL     1     -53.894 -41.822 -76.816  0.00  0.00    +0.000 A 
ATOM     12  C   UNL     1     -54.656 -42.148 -75.598  0.00  0.00    +0.000 A 
ATOM     13  O   UNL     1     -54.046 -42.633 -74.654  0.00  0.00    +0.000 OA
ATOM     14  H   UNL     1     -56.554 -41.217 -78.700  0.00  0.00    +0.000 HD
ENDROOT
BRANCH   1  16
ATOM     15  C   UNL     1     -57.013 -41.119 -73.279  0.00  0.00    +0.000 C 
ATOM     16  C   UNL     1     -56.823 -42.267 -74.265  0.00  0.00    +0.000 C 
ATOM     17  O   UNL     1     -57.189 -43.385 -74.018  0.00  0.00    +0.000 OA
ENDBRANCH   1  16
BRANCH   2  18
ATOM     18  S   UNL     1     -58.564 -41.216 -76.823  0.00  0.00    +0.000 S 
ATOM     19  O   UNL     1     -58.694 -40.419 -78.094  0.00  0.00    +0.000 OA
BRANCH  18  20
ATOM     20  C   UNL     1     -59.281 -42.884 -77.200  0.00  0.00    +0.000 C 
BRANCH  20  21
ATOM     21  C   UNL     1     -58.294 -43.790 -77.853  0.00  0.00    +0.000 A 
ATOM     22  C   UNL     1     -57.612 -44.906 -77.310  0.00  0.00    +0.000 A 
ATOM     23  C   UNL     1     -56.786 -45.323 -78.323  0.00  0.00    +0.000 A 
ATOM     24  C   UNL     1     -55.780 -46.388 -78.451  0.00  0.00    +0.000 C 
ATOM     25  O   UNL     1     -56.975 -44.536 -79.414  0.00  0.00    +0.000 OA
ATOM     26  N   UNL     1     -57.940 -43.588 -79.133  0.00  0.00    +0.000 NA
ENDBRANCH  20  21
ENDBRANCH  18  20
ENDBRANCH   2  18
TORSDOF 4
