REMARK VINA RESULT:    -5.478      3.792      7.382
REMARK INTER + INTRA:          -8.004
REMARK INTER:                  -7.106
REMARK INTRA:                  -0.898
REMARK UNBOUND:                -0.925
REMARK  Name = 
REMARK  8 active torsions:
REMARK  status: ('A' for Active; 'I' for Inactive)
REMARK    1  A    between atoms: C_1  and  C_2
REMARK    2  A    between atoms: C_4  and  C_5
REMARK    3  A    between atoms: C_5  and  S_6
REMARK    4  A    between atoms: S_6  and  C_8
REMARK    5  A    between atoms: C_20  and  C_21
REMARK    6  A    between atoms: C_21  and  C_23
REMARK    7  A    between atoms: C_23  and  C_24
REMARK    8  A    between atoms: C_23  and  C_25
REMARK                            x       y       z     vdW  Elec       q    Type
REMARK                         _______ _______ _______ _____ _____    ______ ____
ROOT
ATOM      1  C   UNL     1     -55.223 -43.407 -77.604  0.00  0.00    +0.000 A 
ATOM      2  N   UNL     1     -56.083 -42.329 -77.796  0.00  0.00    +0.000 N 
ATOM      3  C   UNL     1     -57.485 -42.493 -77.807  0.00  0.00    +0.000 A 
ATOM      4  C   UNL     1     -58.366 -41.411 -77.610  0.00  0.00    +0.000 A 
ATOM      5 CL   UNL     1     -57.764 -39.849 -77.182  0.00  0.00    +0.000 Cl
ATOM      6  C   UNL     1     -59.745 -41.577 -77.729  0.00  0.00    +0.000 A 
ATOM      7  C   UNL     1     -60.265 -42.834 -78.044  0.00  0.00    +0.000 A 
ATOM      8  C   UNL     1     -59.406 -43.926 -78.228  0.00  0.00    +0.000 A 
ATOM      9 CL   UNL     1     -60.168 -45.441 -78.547  0.00  0.00    +0.000 Cl
ATOM     10  C   UNL     1     -58.018 -43.750 -78.122  0.00  0.00    +0.000 A 
ATOM     11  C   UNL     1     -57.012 -44.813 -78.375  0.00  0.00    +0.000 A 
ATOM     12  O   UNL     1     -57.286 -45.724 -79.146  0.00  0.00    +0.000 OA
ATOM     13  C   UNL     1     -55.631 -44.700 -77.740  0.00  0.00    +0.000 A 
ATOM     14  H   UNL     1     -55.745 -41.453 -77.376  0.00  0.00    +0.000 HD
ENDROOT
BRANCH   1  15
ATOM     15  S   UNL     1     -53.607 -42.853 -76.922  0.00  0.00    +0.000 S 
ATOM     16  O   UNL     1     -53.920 -42.528 -75.487  0.00  0.00    +0.000 OA
BRANCH  15  17
ATOM     17  C   UNL     1     -53.320 -41.261 -77.798  0.00  0.00    +0.000 C 
BRANCH  17  21
ATOM     18  C   UNL     1     -52.172 -42.060 -82.776  0.00  0.00    +0.000 C 
ATOM     19  C   UNL     1     -52.681 -41.756 -81.421  0.00  0.00    +0.000 A 
ATOM     20  C   UNL     1     -52.273 -42.042 -80.139  0.00  0.00    +0.000 A 
ATOM     21  C   UNL     1     -53.217 -41.390 -79.297  0.00  0.00    +0.000 A 
ATOM     22  N   UNL     1     -54.153 -40.780 -80.045  0.00  0.00    +0.000 NA
ATOM     23  O   UNL     1     -53.811 -41.006 -81.364  0.00  0.00    +0.000 OA
ENDBRANCH  17  21
ENDBRANCH  15  17
ENDBRANCH   1  15
BRANCH  13  24
ATOM     24  C   UNL     1     -54.994 -46.023 -77.368  0.00  0.00    +0.000 C 
ATOM     25  O   UNL     1     -54.662 -46.817 -78.258  0.00  0.00    +0.000 OA
BRANCH  24  26
ATOM     26  C   UNL     1     -54.877 -46.490 -75.930  0.00  0.00    +0.000 C 
ATOM     27  C   UNL     1     -55.273 -47.951 -75.831  0.00  0.00    +0.000 C 
ATOM     28  C   UNL     1     -53.500 -46.190 -75.351  0.00  0.00    +0.000 C 
ENDBRANCH  24  26
ENDBRANCH  13  24
TORSDOF 5
