REMARK VINA RESULT:    -5.714      3.927      5.886
REMARK INTER + INTRA:          -7.787
REMARK INTER:                  -6.991
REMARK INTRA:                  -0.795
REMARK UNBOUND:                -0.736
REMARK  Name = 
REMARK  6 active torsions:
REMARK  status: ('A' for Active; 'I' for Inactive)
REMARK    1  A    between atoms: C_1  and  C_2
REMARK    2  A    between atoms: C_2  and  C_4
REMARK    3  A    between atoms: C_5  and  S_6
REMARK    4  A    between atoms: S_6  and  C_8
REMARK    5  A    between atoms: C_8  and  C_9
REMARK    6  A    between atoms: C_11  and  C_12
REMARK                            x       y       z     vdW  Elec       q    Type
REMARK                         _______ _______ _______ _____ _____    ______ ____
ROOT
ATOM      1  C   UNL     1     -58.586 -45.521 -78.211  0.00  0.00    +0.000 A 
ATOM      2  C   UNL     1     -57.879 -44.448 -77.792  0.00  0.00    +0.000 A 
ATOM      3  N   UNL     1     -56.609 -44.546 -77.249  0.00  0.00    +0.000 N 
ATOM      4  C   UNL     1     -56.076 -45.780 -76.834  0.00  0.00    +0.000 A 
ATOM      5  C   UNL     1     -54.895 -45.841 -76.074  0.00  0.00    +0.000 A 
ATOM      6 BR   UNL     1     -54.010 -44.255 -75.519  0.00  0.00    +0.000 Br
ATOM      7  C   UNL     1     -54.354 -47.066 -75.694  0.00  0.00    +0.000 A 
ATOM      8  C   UNL     1     -54.988 -48.247 -76.076  0.00  0.00    +0.000 A 
ATOM      9  C   UNL     1     -56.149 -48.209 -76.858  0.00  0.00    +0.000 A 
ATOM     10 CL   UNL     1     -56.878 -49.735 -77.209  0.00  0.00    +0.000 Cl
ATOM     11  C   UNL     1     -56.680 -46.974 -77.263  0.00  0.00    +0.000 A 
ATOM     12  C   UNL     1     -57.861 -46.836 -78.156  0.00  0.00    +0.000 A 
ATOM     13  O   UNL     1     -58.218 -47.762 -78.876  0.00  0.00    +0.000 OA
ATOM     14  H   UNL     1     -56.354 -43.760 -76.646  0.00  0.00    +0.000 HD
ENDROOT
BRANCH   1  16
ATOM     15  C   UNL     1     -61.130 -45.946 -77.821  0.00  0.00    +0.000 C 
ATOM     16  C   UNL     1     -59.999 -45.485 -78.723  0.00  0.00    +0.000 C 
ATOM     17  O   UNL     1     -60.251 -45.089 -79.858  0.00  0.00    +0.000 OA
ENDBRANCH   1  16
BRANCH   2  18
ATOM     18  S   UNL     1     -58.594 -42.770 -77.767  0.00  0.00    +0.000 S 
ATOM     19  O   UNL     1     -59.715 -42.888 -76.770  0.00  0.00    +0.000 OA
BRANCH  18  20
ATOM     20  C   UNL     1     -57.216 -41.923 -76.898  0.00  0.00    +0.000 C 
BRANCH  20  21
ATOM     21  C   UNL     1     -56.267 -41.197 -77.797  0.00  0.00    +0.000 A 
ATOM     22  C   UNL     1     -55.488 -40.030 -77.578  0.00  0.00    +0.000 A 
ATOM     23  C   UNL     1     -54.730 -39.898 -78.717  0.00  0.00    +0.000 A 
ATOM     24  C   UNL     1     -53.706 -38.941 -79.178  0.00  0.00    +0.000 C 
ATOM     25  O   UNL     1     -55.026 -40.914 -79.567  0.00  0.00    +0.000 OA
ATOM     26  N   UNL     1     -55.983 -41.732 -78.996  0.00  0.00    +0.000 NA
ENDBRANCH  20  21
ENDBRANCH  18  20
ENDBRANCH   2  18
TORSDOF 4
