REMARK VINA RESULT:    -6.704     11.120     13.496
REMARK INTER + INTRA:          -9.580
REMARK INTER:                  -8.718
REMARK INTRA:                  -0.862
REMARK UNBOUND:                -0.917
REMARK  Name = 
REMARK  6 active torsions:
REMARK  status: ('A' for Active; 'I' for Inactive)
REMARK    1  A    between atoms: C_1  and  C_2
REMARK    2  A    between atoms: C_4  and  C_5
REMARK    3  A    between atoms: C_5  and  S_6
REMARK    4  A    between atoms: S_6  and  C_8
REMARK    5  A    between atoms: C_20  and  C_21
REMARK    6  A    between atoms: C_21  and  C_23
REMARK                            x       y       z     vdW  Elec       q    Type
REMARK                         _______ _______ _______ _____ _____    ______ ____
ROOT
ATOM      1  C   UNL     1     -57.807 -40.953 -62.724  0.00  0.00    +0.000 A 
ATOM      2  N   UNL     1     -57.308 -39.677 -62.398  0.00  0.00    +0.000 N 
ATOM      3  C   UNL     1     -56.195 -39.135 -63.097  0.00  0.00    +0.000 A 
ATOM      4  C   UNL     1     -55.891 -37.761 -63.109  0.00  0.00    +0.000 A 
ATOM      5 BR   UNL     1     -57.064 -36.491 -62.328  0.00  0.00    +0.000 Br
ATOM      6  C   UNL     1     -54.723 -37.282 -63.719  0.00  0.00    +0.000 A 
ATOM      7  C   UNL     1     -53.855 -38.179 -64.353  0.00  0.00    +0.000 A 
ATOM      8  C   UNL     1     -54.136 -39.545 -64.356  0.00  0.00    +0.000 A 
ATOM      9 CL   UNL     1     -53.042 -40.559 -65.225  0.00  0.00    +0.000 Cl
ATOM     10  C   UNL     1     -55.290 -40.016 -63.711  0.00  0.00    +0.000 A 
ATOM     11  C   UNL     1     -55.626 -41.447 -63.588  0.00  0.00    +0.000 A 
ATOM     12  O   UNL     1     -54.759 -42.310 -63.531  0.00  0.00    +0.000 OA
ATOM     13  C   UNL     1     -57.072 -41.822 -63.453  0.00  0.00    +0.000 A 
ATOM     14  H   UNL     1     -58.061 -38.996 -62.227  0.00  0.00    +0.000 HD
ENDROOT
BRANCH   1  15
ATOM     15  S   UNL     1     -59.597 -41.086 -62.470  0.00  0.00    +0.000 S 
ATOM     16  O   UNL     1     -60.057 -39.661 -62.325  0.00  0.00    +0.000 OA
BRANCH  15  17
ATOM     17  C   UNL     1     -59.924 -41.926 -60.892  0.00  0.00    +0.000 C 
BRANCH  17  21
ATOM     18  C   UNL     1     -61.635 -46.750 -61.010  0.00  0.00    +0.000 C 
ATOM     19  C   UNL     1     -61.306 -45.322 -60.845  0.00  0.00    +0.000 A 
ATOM     20  C   UNL     1     -60.272 -44.514 -61.256  0.00  0.00    +0.000 A 
ATOM     21  C   UNL     1     -60.641 -43.220 -60.828  0.00  0.00    +0.000 A 
ATOM     22  N   UNL     1     -61.795 -43.262 -60.138  0.00  0.00    +0.000 NA
ATOM     23  O   UNL     1     -62.207 -44.579 -60.154  0.00  0.00    +0.000 OA
ENDBRANCH  17  21
ENDBRANCH  15  17
ENDBRANCH   1  15
BRANCH  13  24
ATOM     24  C   UNL     1     -57.470 -42.990 -64.289  0.00  0.00    +0.000 C 
ATOM     25  O   UNL     1     -57.488 -44.113 -63.816  0.00  0.00    +0.000 OA
BRANCH  24  26
ATOM     26  C   UNL     1     -57.887 -42.756 -65.685  0.00  0.00    +0.000 C 
ATOM     27  C   UNL     1     -57.865 -43.900 -66.666  0.00  0.00    +0.000 C 
ATOM     28  C   UNL     1     -56.885 -42.776 -66.815  0.00  0.00    +0.000 C 
ENDBRANCH  24  26
ENDBRANCH  13  24
TORSDOF 5
