REMARK VINA RESULT:    -6.247      1.874      2.207
REMARK INTER + INTRA:          -8.990
REMARK INTER:                  -7.738
REMARK INTRA:                  -1.252
REMARK UNBOUND:                -0.917
REMARK  Name = 
REMARK  6 active torsions:
REMARK  status: ('A' for Active; 'I' for Inactive)
REMARK    1  A    between atoms: C_1  and  C_2
REMARK    2  A    between atoms: C_4  and  C_5
REMARK    3  A    between atoms: C_5  and  S_6
REMARK    4  A    between atoms: S_6  and  C_8
REMARK    5  A    between atoms: C_20  and  C_21
REMARK    6  A    between atoms: C_21  and  C_23
REMARK                            x       y       z     vdW  Elec       q    Type
REMARK                         _______ _______ _______ _____ _____    ______ ____
ROOT
ATOM      1  C   UNL     1     -55.563 -43.424 -78.229  0.00  0.00    +0.000 A 
ATOM      2  N   UNL     1     -54.357 -43.517 -77.509  0.00  0.00    +0.000 N 
ATOM      3  C   UNL     1     -53.632 -42.345 -77.156  0.00  0.00    +0.000 A 
ATOM      4  C   UNL     1     -52.664 -42.319 -76.135  0.00  0.00    +0.000 A 
ATOM      5 BR   UNL     1     -52.379 -43.825 -75.017  0.00  0.00    +0.000 Br
ATOM      6  C   UNL     1     -51.895 -41.172 -75.894  0.00  0.00    +0.000 A 
ATOM      7  C   UNL     1     -52.108 -40.021 -76.662  0.00  0.00    +0.000 A 
ATOM      8  C   UNL     1     -53.063 -40.023 -77.678  0.00  0.00    +0.000 A 
ATOM      9 CL   UNL     1     -53.300 -38.533 -78.519  0.00  0.00    +0.000 Cl
ATOM     10  C   UNL     1     -53.801 -41.188 -77.933  0.00  0.00    +0.000 A 
ATOM     11  C   UNL     1     -54.770 -41.311 -79.040  0.00  0.00    +0.000 A 
ATOM     12  O   UNL     1     -54.636 -40.689 -80.086  0.00  0.00    +0.000 OA
ATOM     13  C   UNL     1     -55.896 -42.289 -78.884  0.00  0.00    +0.000 A 
ATOM     14  H   UNL     1     -54.406 -44.216 -76.755  0.00  0.00    +0.000 HD
ENDROOT
BRANCH   1  15
ATOM     15  S   UNL     1     -56.731 -44.742 -77.805  0.00  0.00    +0.000 S 
ATOM     16  O   UNL     1     -57.183 -45.278 -79.136  0.00  0.00    +0.000 OA
BRANCH  15  17
ATOM     17  C   UNL     1     -58.185 -44.024 -76.985  0.00  0.00    +0.000 C 
BRANCH  17  21
ATOM     18  C   UNL     1     -56.959 -41.350 -72.795  0.00  0.00    +0.000 C 
ATOM     19  C   UNL     1     -57.455 -41.967 -74.039  0.00  0.00    +0.000 A 
ATOM     20  C   UNL     1     -57.088 -43.058 -74.791  0.00  0.00    +0.000 A 
ATOM     21  C   UNL     1     -58.060 -43.128 -75.813  0.00  0.00    +0.000 A 
ATOM     22  N   UNL     1     -58.917 -42.096 -75.720  0.00  0.00    +0.000 NA
ATOM     23  O   UNL     1     -58.535 -41.375 -74.608  0.00  0.00    +0.000 OA
ENDBRANCH  17  21
ENDBRANCH  15  17
ENDBRANCH   1  15
BRANCH  13  24
ATOM     24  C   UNL     1     -57.217 -41.758 -79.326  0.00  0.00    +0.000 C 
ATOM     25  O   UNL     1     -57.799 -40.916 -78.664  0.00  0.00    +0.000 OA
BRANCH  24  26
ATOM     26  C   UNL     1     -57.784 -42.234 -80.602  0.00  0.00    +0.000 C 
ATOM     27  C   UNL     1     -56.865 -42.790 -81.659  0.00  0.00    +0.000 C 
ATOM     28  C   UNL     1     -57.554 -41.480 -81.890  0.00  0.00    +0.000 C 
ENDBRANCH  24  26
ENDBRANCH  13  24
TORSDOF 5
