=
 OpenBabel09162517223D

 26 28  0  0  0  0  0  0  0  0999 V2000
  -55.5850  -42.5340  -62.9580 C   0  0  0  0  0  0  0  0  0  0  0  0
  -55.3770  -41.3040  -63.4870 C   0  0  0  0  0  0  0  0  0  0  0  0
  -54.1850  -40.9250  -64.0700 N   0  0  0  0  0  0  0  0  0  0  0  0
  -53.0470  -41.7460  -64.0930 C   0  0  0  0  0  0  0  0  0  0  0  0
  -51.8770  -41.3360  -64.7600 C   0  0  0  0  0  0  0  0  0  0  0  0
  -51.7790  -39.6410  -65.6130 Br  0  0  0  0  0  0  0  0  0  0  0  0
  -50.7610  -42.1680  -64.8300 C   0  0  0  0  0  3  0  0  0  0  0  0
  -50.8000  -43.4230  -64.2260 C   0  0  0  0  0  3  0  0  0  0  0  0
  -51.9620  -43.8610  -63.5770 C   0  0  0  0  0  0  0  0  0  0  0  0
  -51.8540  -45.4360  -62.8710 Cl  0  0  0  0  0  0  0  0  0  0  0  0
  -53.1020  -43.0360  -63.5380 C   0  0  0  0  0  0  0  0  0  0  0  0
  -54.3880  -43.4490  -62.9170 C   0  0  0  0  0  0  0  0  0  0  0  0
  -54.4750  -44.5220  -62.3330 O   0  0  0  0  0  0  0  0  0  0  0  0
  -54.0140  -39.9210  -64.1270 H   0  0  0  0  0  0  0  0  0  0  0  0
  -57.8330  -43.7780  -63.2990 C   0  0  0  0  0  1  0  0  0  0  0  0
  -56.8920  -43.0170  -62.3920 C   0  0  0  0  0  0  0  0  0  0  0  0
  -57.2260  -42.7800  -61.2290 O   0  0  0  0  0  0  0  0  0  0  0  0
  -56.6350  -39.9910  -63.3460 S   0  0  1  0  0  0  0  0  0  0  0  0
  -56.4340  -39.4630  -61.9510 O   0  0  0  0  0  0  0  0  0  0  0  0
  -55.8880  -38.7530  -64.4660 C   0  0  0  0  0  2  0  0  0  0  0  0
  -55.3570  -37.5780  -63.7180 C   0  0  0  0  0  0  0  0  0  0  0  0
  -54.1750  -37.4740  -62.9420 C   0  0  0  0  0  3  0  0  0  0  0  0
  -54.1240  -36.1550  -62.5620 C   0  0  0  0  0  0  0  0  0  0  0  0
  -53.1820  -35.3420  -61.7710 C   0  0  0  0  0  1  0  0  0  0  0  0
  -55.2060  -35.5060  -63.0710 O   0  0  0  0  0  0  0  0  0  0  0  0
  -55.9780  -36.3930  -63.8000 N   0  0  0  0  0  0  0  0  0  0  0  0
  1 12  1  0  0  0  0
  1 16  1  0  0  0  0
  2 18  1  0  0  0  0
  2  1  2  0  0  0  0
  3  2  1  0  0  0  0
  4  3  1  0  0  0  0
  4 11  1  0  0  0  0
  5  4  2  0  0  0  0
  6  5  1  0  0  0  0
  7  5  1  0  0  0  0
  7  8  2  0  0  0  0
  8  9  1  0  0  0  0
  9 11  2  0  0  0  0
  9 10  1  0  0  0  0
 11 12  1  0  0  0  0
 12 13  2  0  0  0  0
 14  3  1  0  0  0  0
 15 16  1  0  0  0  0
 16 17  2  0  0  0  0
 18 19  2  1  0  0  0
 20 21  1  0  0  0  0
 20 18  1  0  0  0  0
 21 22  1  0  0  0  0
 22 23  2  0  0  0  0
 23 24  1  0  0  0  0
 25 23  1  0  0  0  0
 26 21  2  0  0  0  0
 26 25  1  0  0  0  0
M  END
>  <MODEL>
1

>  <REMARK>
 VINA RESULT:    -6.816      0.000      0.000
 INTER + INTRA:          -9.169
 INTER:                  -8.409
 INTRA:                  -0.760
 UNBOUND:                -0.760
  Name = 
  6 active torsions:
  status: ('A' for Active; 'I' for Inactive)
    1  A    between atoms: C_1  and  C_2
    2  A    between atoms: C_2  and  C_4
    3  A    between atoms: C_5  and  S_6
    4  A    between atoms: S_6  and  C_8
    5  A    between atoms: C_8  and  C_9
    6  A    between atoms: C_11  and  C_12
                            x       y       z     vdW  Elec       q    Type
                         _______ _______ _______ _____ _____    ______ ____

>  <TORSDO>
F 4

$$$$
