REMARK VINA RESULT:    -5.536     22.577     26.325
REMARK INTER + INTRA:          -8.024
REMARK INTER:                  -6.973
REMARK INTRA:                  -1.051
REMARK UNBOUND:                -0.870
REMARK  Name = 
REMARK  8 active torsions:
REMARK  status: ('A' for Active; 'I' for Inactive)
REMARK    1  A    between atoms: C_1  and  C_2
REMARK    2  A    between atoms: C_4  and  C_5
REMARK    3  A    between atoms: C_5  and  S_6
REMARK    4  A    between atoms: S_6  and  C_8
REMARK    5  A    between atoms: C_20  and  C_21
REMARK    6  A    between atoms: C_21  and  C_23
REMARK    7  A    between atoms: C_23  and  C_24
REMARK    8  A    between atoms: C_23  and  C_25
REMARK                            x       y       z     vdW  Elec       q    Type
REMARK                         _______ _______ _______ _____ _____    ______ ____
ROOT
ATOM      1  C   UNL     1     -67.096 -49.313 -53.939  0.00  0.00    +0.000 A 
ATOM      2  N   UNL     1     -67.605 -50.241 -54.842  0.00  0.00    +0.000 N 
ATOM      3  C   UNL     1     -67.710 -51.607 -54.517  0.00  0.00    +0.000 A 
ATOM      4  C   UNL     1     -68.575 -52.477 -55.206  0.00  0.00    +0.000 A 
ATOM      5 BR   UNL     1     -69.779 -51.820 -56.517  0.00  0.00    +0.000 Br
ATOM      6  C   UNL     1     -68.603 -53.844 -54.915  0.00  0.00    +0.000 A 
ATOM      7  C   UNL     1     -67.769 -54.361 -53.927  0.00  0.00    +0.000 A 
ATOM      8  C   UNL     1     -66.902 -53.507 -53.221  0.00  0.00    +0.000 A 
ATOM      9 CL   UNL     1     -65.970 -54.250 -51.972  0.00  0.00    +0.000 Cl
ATOM     10  C   UNL     1     -66.870 -52.129 -53.520  0.00  0.00    +0.000 A 
ATOM     11  C   UNL     1     -65.969 -51.152 -52.856  0.00  0.00    +0.000 A 
ATOM     12  O   UNL     1     -64.926 -51.534 -52.333  0.00  0.00    +0.000 OA
ATOM     13  C   UNL     1     -66.361 -49.678 -52.861  0.00  0.00    +0.000 A 
ATOM     14  H   UNL     1     -68.340 -49.865 -55.457  0.00  0.00    +0.000 HD
ENDROOT
BRANCH   1  15
ATOM     15  S   UNL     1     -67.725 -47.626 -54.282  0.00  0.00    +0.000 S 
ATOM     16  O   UNL     1     -69.015 -47.867 -55.019  0.00  0.00    +0.000 OA
BRANCH  15  17
ATOM     17  C   UNL     1     -66.503 -46.954 -55.459  0.00  0.00    +0.000 C 
BRANCH  17  21
ATOM     18  C   UNL     1     -68.219 -46.425 -60.315  0.00  0.00    +0.000 C 
ATOM     19  C   UNL     1     -67.668 -46.766 -58.985  0.00  0.00    +0.000 A 
ATOM     20  C   UNL     1     -67.461 -46.078 -57.811  0.00  0.00    +0.000 A 
ATOM     21  C   UNL     1     -66.916 -47.039 -56.910  0.00  0.00    +0.000 A 
ATOM     22  N   UNL     1     -66.790 -48.224 -57.530  0.00  0.00    +0.000 NA
ATOM     23  O   UNL     1     -67.262 -48.050 -58.818  0.00  0.00    +0.000 OA
ENDBRANCH  17  21
ENDBRANCH  15  17
ENDBRANCH   1  15
BRANCH  13  24
ATOM     24  C   UNL     1     -65.922 -48.853 -51.672  0.00  0.00    +0.000 C 
ATOM     25  O   UNL     1     -66.696 -48.654 -50.737  0.00  0.00    +0.000 OA
BRANCH  24  26
ATOM     26  C   UNL     1     -64.537 -48.204 -51.650  0.00  0.00    +0.000 C 
ATOM     27  C   UNL     1     -63.896 -48.193 -53.036  0.00  0.00    +0.000 C 
ATOM     28  C   UNL     1     -64.578 -46.787 -51.073  0.00  0.00    +0.000 C 
ENDBRANCH  24  26
ENDBRANCH  13  24
TORSDOF 5
