=
 OpenBabel09162514343D

 28 30  0  0  0  0  0  0  0  0999 V2000
  -55.7650  -42.6710  -76.5970 C   0  0  0  0  0  0  0  0  0  0  0  0
  -54.4540  -43.0510  -76.3260 N   0  0  0  0  0  0  0  0  0  0  0  0
  -53.4110  -42.1060  -76.2520 C   0  0  0  0  0  0  0  0  0  0  0  0
  -52.2000  -42.3780  -75.5880 C   0  0  0  0  0  0  0  0  0  0  0  0
  -51.9630  -43.9840  -74.6080 Br  0  0  0  0  0  0  0  0  0  0  0  0
  -51.1520  -41.4520  -75.5970 C   0  0  0  0  0  3  0  0  0  0  0  0
  -51.3020  -40.2400  -76.2640 C   0  0  0  0  0  3  0  0  0  0  0  0
  -52.5080  -39.9460  -76.9270 C   0  0  0  0  0  0  0  0  0  0  0  0
  -52.6010  -38.3840  -77.6580 Cl  0  0  0  0  0  0  0  0  0  0  0  0
  -53.5620  -40.8830  -76.9250 C   0  0  0  0  0  0  0  0  0  0  0  0
  -54.8590  -40.6820  -77.6210 C   0  0  0  0  0  0  0  0  0  0  0  0
  -54.9330  -39.9090  -78.5710 O   0  0  0  0  0  0  0  0  0  0  0  0
  -56.0740  -41.4700  -77.1410 C   0  0  0  0  0  0  0  0  0  0  0  0
  -54.3760  -43.8600  -75.6940 H   0  0  0  0  0  0  0  0  0  0  0  0
  -56.9660  -43.8850  -75.9330 S   0  0  2  0  0  0  0  0  0  0  0  0
  -57.6020  -44.4720  -77.1640 O   0  0  0  0  0  0  0  0  0  0  0  0
  -58.1990  -42.8370  -75.0900 C   0  0  0  0  0  2  0  0  0  0  0  0
  -55.8590  -41.1950  -70.7730 C   0  0  0  0  0  1  0  0  0  0  0  0
  -56.6660  -41.5140  -71.9720 C   0  0  0  0  0  0  0  0  0  0  0  0
  -56.5250  -42.3670  -73.0430 C   0  0  0  0  0  3  0  0  0  0  0  0
  -57.7050  -42.1850  -73.8200 C   0  0  0  0  0  0  0  0  0  0  0  0
  -58.4890  -41.2560  -73.2450 N   0  0  0  0  0  0  0  0  0  0  0  0
  -57.8410  -40.8450  -72.0960 O   0  0  0  0  0  0  0  0  0  0  0  0
  -57.4220  -40.8020  -77.2970 C   0  0  0  0  0  0  0  0  0  0  0  0
  -57.7220  -39.8410  -76.5900 O   0  0  0  0  0  0  0  0  0  0  0  0
  -58.4480  -41.3560  -78.2860 C   0  0  0  0  0  3  0  0  0  0  0  0
  -59.6000  -40.3800  -78.5120 C   0  0  0  0  0  1  0  0  0  0  0  0
  -57.8070  -41.7390  -79.6220 C   0  0  0  0  0  1  0  0  0  0  0  0
  1  2  1  0  0  0  0
  1 15  1  0  0  0  0
  2  3  1  0  0  0  0
  2 14  1  0  0  0  0
  3  4  1  0  0  0  0
  4  5  1  0  0  0  0
  6  4  2  0  0  0  0
  7  6  1  0  0  0  0
  8 10  1  0  0  0  0
  8  7  2  0  0  0  0
  9  8  1  0  0  0  0
 10  3  2  0  0  0  0
 11 13  1  0  0  0  0
 11 10  1  0  0  0  0
 12 11  2  0  0  0  0
 13  1  2  0  0  0  0
 15 16  2  6  0  0  0
 15 17  1  0  0  0  0
 17 21  1  0  0  0  0
 19 18  1  0  0  0  0
 20 19  2  0  0  0  0
 21 22  2  0  0  0  0
 21 20  1  0  0  0  0
 22 23  1  0  0  0  0
 23 19  1  0  0  0  0
 24 13  1  0  0  0  0
 24 25  2  0  0  0  0
 26 24  1  0  0  0  0
 27 26  1  0  0  0  0
 28 26  1  0  0  0  0
M  END
>  <MODEL>
1

>  <REMARK>
 VINA RESULT:    -7.470      0.000      0.000
 INTER + INTRA:         -10.447
 INTER:                  -9.653
 INTRA:                  -0.794
 UNBOUND:                -0.794
  Name = 
  8 active torsions:
  status: ('A' for Active; 'I' for Inactive)
    1  A    between atoms: C_1  and  C_2
    2  A    between atoms: C_4  and  C_5
    3  A    between atoms: C_5  and  S_6
    4  A    between atoms: S_6  and  C_8
    5  A    between atoms: C_20  and  C_21
    6  A    between atoms: C_21  and  C_23
    7  A    between atoms: C_23  and  C_24
    8  A    between atoms: C_23  and  C_25
                            x       y       z     vdW  Elec       q    Type
                         _______ _______ _______ _____ _____    ______ ____

>  <TORSDO>
F 5

$$$$
