REMARK VINA RESULT:    -5.250     14.378     17.351
REMARK INTER + INTRA:          -7.676
REMARK INTER:                  -6.667
REMARK INTRA:                  -1.009
REMARK UNBOUND:                -0.891
REMARK  Name = 
REMARK  6 active torsions:
REMARK  status: ('A' for Active; 'I' for Inactive)
REMARK    1  A    between atoms: C_1  and  C_2
REMARK    2  A    between atoms: C_4  and  C_5
REMARK    3  A    between atoms: C_5  and  S_6
REMARK    4  A    between atoms: S_6  and  C_8
REMARK    5  A    between atoms: C_20  and  C_21
REMARK    6  A    between atoms: C_21  and  C_23
REMARK                            x       y       z     vdW  Elec       q    Type
REMARK                         _______ _______ _______ _____ _____    ______ ____
ROOT
ATOM      1  C   UNL     1     -54.394 -34.526 -60.899  0.00  0.00    +0.000 A 
ATOM      2  N   UNL     1     -54.609 -33.142 -60.751  0.00  0.00    +0.000 N 
ATOM      3  C   UNL     1     -55.887 -32.575 -61.011  0.00  0.00    +0.000 A 
ATOM      4  C   UNL     1     -56.282 -31.315 -60.526  0.00  0.00    +0.000 A 
ATOM      5 BR   UNL     1     -55.185 -30.342 -59.321  0.00  0.00    +0.000 Br
ATOM      6  C   UNL     1     -57.508 -30.746 -60.897  0.00  0.00    +0.000 A 
ATOM      7  C   UNL     1     -58.371 -31.452 -61.743  0.00  0.00    +0.000 A 
ATOM      8  C   UNL     1     -58.002 -32.704 -62.235  0.00  0.00    +0.000 A 
ATOM      9 CL   UNL     1     -59.166 -33.524 -63.213  0.00  0.00    +0.000 Cl
ATOM     10  C   UNL     1     -56.756 -33.247 -61.885  0.00  0.00    +0.000 A 
ATOM     11  C   UNL     1     -56.245 -34.522 -62.423  0.00  0.00    +0.000 A 
ATOM     12  O   UNL     1     -56.552 -34.920 -63.540  0.00  0.00    +0.000 OA
ATOM     13  C   UNL     1     -55.264 -35.294 -61.591  0.00  0.00    +0.000 A 
ATOM     14  H   UNL     1     -54.152 -32.765 -59.909  0.00  0.00    +0.000 HD
ENDROOT
BRANCH   1  15
ATOM     15  S   UNL     1     -53.161 -35.168 -59.736  0.00  0.00    +0.000 S 
ATOM     16  O   UNL     1     -53.930 -35.375 -58.460  0.00  0.00    +0.000 OA
BRANCH  15  17
ATOM     17  C   UNL     1     -51.908 -33.892 -59.415  0.00  0.00    +0.000 C 
BRANCH  17  21
ATOM     18  C   UNL     1     -48.890 -32.938 -63.440  0.00  0.00    +0.000 C 
ATOM     19  C   UNL     1     -49.610 -33.114 -62.165  0.00  0.00    +0.000 A 
ATOM     20  C   UNL     1     -50.841 -33.612 -61.811  0.00  0.00    +0.000 A 
ATOM     21  C   UNL     1     -50.849 -33.570 -60.399  0.00  0.00    +0.000 A 
ATOM     22  N   UNL     1     -49.716 -33.012 -59.938  0.00  0.00    +0.000 NA
ATOM     23  O   UNL     1     -48.944 -32.731 -61.046  0.00  0.00    +0.000 OA
ENDBRANCH  17  21
ENDBRANCH  15  17
ENDBRANCH   1  15
BRANCH  13  24
ATOM     24  C   UNL     1     -55.538 -36.758 -61.546  0.00  0.00    +0.000 C 
ATOM     25  O   UNL     1     -56.508 -37.189 -60.946  0.00  0.00    +0.000 OA
BRANCH  24  26
ATOM     26  C   UNL     1     -54.643 -37.672 -62.281  0.00  0.00    +0.000 C 
ATOM     27  C   UNL     1     -53.991 -37.205 -63.557  0.00  0.00    +0.000 C 
ATOM     28  C   UNL     1     -55.049 -38.266 -63.609  0.00  0.00    +0.000 C 
ENDBRANCH  24  26
ENDBRANCH  13  24
TORSDOF 5
