REMARK VINA RESULT:    -5.606      8.549     11.594
REMARK INTER + INTRA:          -8.144
REMARK INTER:                  -7.283
REMARK INTRA:                  -0.861
REMARK UNBOUND:                -0.899
REMARK  Name = 
REMARK  6 active torsions:
REMARK  status: ('A' for Active; 'I' for Inactive)
REMARK    1  A    between atoms: C_1  and  C_2
REMARK    2  A    between atoms: C_4  and  C_5
REMARK    3  A    between atoms: C_5  and  S_6
REMARK    4  A    between atoms: S_6  and  C_8
REMARK    5  A    between atoms: C_20  and  C_21
REMARK    6  A    between atoms: C_21  and  C_23
REMARK                            x       y       z     vdW  Elec       q    Type
REMARK                         _______ _______ _______ _____ _____    ______ ____
ROOT
ATOM      1  C   UNL     1     -63.691 -39.762 -80.799  0.00  0.00    +0.000 A 
ATOM      2  N   UNL     1     -63.896 -41.019 -80.200  0.00  0.00    +0.000 N 
ATOM      3  C   UNL     1     -62.847 -41.658 -79.483  0.00  0.00    +0.000 A 
ATOM      4  C   UNL     1     -63.071 -42.689 -78.551  0.00  0.00    +0.000 A 
ATOM      5 BR   UNL     1     -64.830 -43.188 -78.046  0.00  0.00    +0.000 Br
ATOM      6  C   UNL     1     -62.002 -43.367 -77.948  0.00  0.00    +0.000 A 
ATOM      7  C   UNL     1     -60.687 -42.996 -78.254  0.00  0.00    +0.000 A 
ATOM      8  C   UNL     1     -60.440 -41.976 -79.172  0.00  0.00    +0.000 A 
ATOM      9 CL   UNL     1     -58.787 -41.546 -79.425  0.00  0.00    +0.000 Cl
ATOM     10  C   UNL     1     -61.519 -41.330 -79.796  0.00  0.00    +0.000 A 
ATOM     11  C   UNL     1     -61.355 -40.301 -80.841  0.00  0.00    +0.000 A 
ATOM     12  O   UNL     1     -60.398 -40.304 -81.605  0.00  0.00    +0.000 OA
ATOM     13  C   UNL     1     -62.444 -39.281 -81.000  0.00  0.00    +0.000 A 
ATOM     14  H   UNL     1     -64.814 -41.087 -79.739  0.00  0.00    +0.000 HD
ENDROOT
BRANCH   1  15
ATOM     15  S   UNL     1     -65.195 -38.751 -80.827  0.00  0.00    +0.000 S 
ATOM     16  O   UNL     1     -66.184 -39.537 -80.009  0.00  0.00    +0.000 OA
BRANCH  15  17
ATOM     17  C   UNL     1     -65.839 -38.667 -82.524  0.00  0.00    +0.000 C 
BRANCH  17  21
ATOM     18  C   UNL     1     -64.988 -34.794 -85.764  0.00  0.00    +0.000 C 
ATOM     19  C   UNL     1     -65.414 -35.808 -84.781  0.00  0.00    +0.000 A 
ATOM     20  C   UNL     1     -64.929 -37.031 -84.382  0.00  0.00    +0.000 A 
ATOM     21  C   UNL     1     -65.779 -37.421 -83.323  0.00  0.00    +0.000 A 
ATOM     22  N   UNL     1     -66.758 -36.517 -83.147  0.00  0.00    +0.000 NA
ATOM     23  O   UNL     1     -66.524 -35.510 -84.060  0.00  0.00    +0.000 OA
ENDBRANCH  17  21
ENDBRANCH  15  17
ENDBRANCH   1  15
BRANCH  13  24
ATOM     24  C   UNL     1     -61.941 -37.890 -81.182  0.00  0.00    +0.000 C 
ATOM     25  O   UNL     1     -61.932 -37.373 -82.285  0.00  0.00    +0.000 OA
BRANCH  24  26
ATOM     26  C   UNL     1     -61.499 -37.134 -79.995  0.00  0.00    +0.000 C 
ATOM     27  C   UNL     1     -61.641 -37.750 -78.627  0.00  0.00    +0.000 C 
ATOM     28  C   UNL     1     -62.495 -36.578 -79.005  0.00  0.00    +0.000 C 
ENDBRANCH  24  26
ENDBRANCH  13  24
TORSDOF 5
