REMARK VINA RESULT:    -6.629     12.371     14.528
REMARK INTER + INTRA:          -9.440
REMARK INTER:                  -8.215
REMARK INTRA:                  -1.224
REMARK UNBOUND:                -0.873
REMARK  Name = 
REMARK  6 active torsions:
REMARK  status: ('A' for Active; 'I' for Inactive)
REMARK    1  A    between atoms: C_1  and  C_2
REMARK    2  A    between atoms: C_4  and  C_5
REMARK    3  A    between atoms: C_5  and  S_6
REMARK    4  A    between atoms: S_6  and  C_8
REMARK    5  A    between atoms: C_20  and  C_21
REMARK    6  A    between atoms: C_21  and  C_23
REMARK                            x       y       z     vdW  Elec       q    Type
REMARK                         _______ _______ _______ _____ _____    ______ ____
ROOT
ATOM      1  C   UNL     1     -56.372 -42.859 -63.012  0.00  0.00    +0.000 A 
ATOM      2  N   UNL     1     -55.295 -43.767 -63.025  0.00  0.00    +0.000 N 
ATOM      3  C   UNL     1     -53.971 -43.316 -63.281  0.00  0.00    +0.000 A 
ATOM      4  C   UNL     1     -52.827 -44.058 -62.934  0.00  0.00    +0.000 A 
ATOM      5 BR   UNL     1     -52.966 -45.657 -61.923  0.00  0.00    +0.000 Br
ATOM      6  C   UNL     1     -51.544 -43.628 -63.303  0.00  0.00    +0.000 A 
ATOM      7  C   UNL     1     -51.392 -42.427 -64.004  0.00  0.00    +0.000 A 
ATOM      8  C   UNL     1     -52.512 -41.673 -64.358  0.00  0.00    +0.000 A 
ATOM      9 CL   UNL     1     -52.212 -40.173 -65.158  0.00  0.00    +0.000 Cl
ATOM     10  C   UNL     1     -53.792 -42.132 -64.014  0.00  0.00    +0.000 A 
ATOM     11  C   UNL     1     -55.036 -41.449 -64.418  0.00  0.00    +0.000 A 
ATOM     12  O   UNL     1     -55.110 -40.806 -65.457  0.00  0.00    +0.000 OA
ATOM     13  C   UNL     1     -56.249 -41.627 -63.553  0.00  0.00    +0.000 A 
ATOM     14  H   UNL     1     -55.358 -44.456 -62.263  0.00  0.00    +0.000 HD
ENDROOT
BRANCH   1  15
ATOM     15  S   UNL     1     -57.676 -43.342 -61.850  0.00  0.00    +0.000 S 
ATOM     16  O   UNL     1     -58.931 -43.333 -62.680  0.00  0.00    +0.000 OA
BRANCH  15  17
ATOM     17  C   UNL     1     -57.858 -42.060 -60.575  0.00  0.00    +0.000 C 
BRANCH  17  21
ATOM     18  C   UNL     1     -54.425 -39.914 -57.441  0.00  0.00    +0.000 C 
ATOM     19  C   UNL     1     -55.318 -40.717 -58.297  0.00  0.00    +0.000 A 
ATOM     20  C   UNL     1     -56.442 -40.448 -59.042  0.00  0.00    +0.000 A 
ATOM     21  C   UNL     1     -56.734 -41.666 -59.696  0.00  0.00    +0.000 A 
ATOM     22  N   UNL     1     -55.876 -42.626 -59.309  0.00  0.00    +0.000 NA
ATOM     23  O   UNL     1     -54.992 -42.027 -58.436  0.00  0.00    +0.000 OA
ENDBRANCH  17  21
ENDBRANCH  15  17
ENDBRANCH   1  15
BRANCH  13  24
ATOM     24  C   UNL     1     -57.003 -40.364 -63.311  0.00  0.00    +0.000 C 
ATOM     25  O   UNL     1     -58.157 -40.250 -63.686  0.00  0.00    +0.000 OA
BRANCH  24  26
ATOM     26  C   UNL     1     -56.344 -39.273 -62.568  0.00  0.00    +0.000 C 
ATOM     27  C   UNL     1     -57.073 -37.971 -62.361  0.00  0.00    +0.000 C 
ATOM     28  C   UNL     1     -55.881 -38.018 -63.267  0.00  0.00    +0.000 C 
ENDBRANCH  24  26
ENDBRANCH  13  24
TORSDOF 5
