REMARK VINA RESULT:    -6.294     13.543     14.631
REMARK INTER + INTRA:          -8.802
REMARK INTER:                  -7.705
REMARK INTRA:                  -1.096
REMARK UNBOUND:                -1.035
REMARK  Name = 
REMARK  6 active torsions:
REMARK  status: ('A' for Active; 'I' for Inactive)
REMARK    1  A    between atoms: C_1  and  C_2
REMARK    2  A    between atoms: C_2  and  C_4
REMARK    3  A    between atoms: C_5  and  S_6
REMARK    4  A    between atoms: S_6  and  C_8
REMARK    5  A    between atoms: C_8  and  C_9
REMARK    6  A    between atoms: C_11  and  C_12
REMARK                            x       y       z     vdW  Elec       q    Type
REMARK                         _______ _______ _______ _____ _____    ______ ____
ROOT
ATOM      1  C   UNL     1     -54.571 -42.531 -77.555  0.00  0.00    +0.000 A 
ATOM      2  C   UNL     1     -55.688 -42.927 -78.209  0.00  0.00    +0.000 A 
ATOM      3  N   UNL     1     -56.198 -44.196 -78.035  0.00  0.00    +0.000 N 
ATOM      4  C   UNL     1     -55.656 -45.145 -77.163  0.00  0.00    +0.000 A 
ATOM      5  C   UNL     1     -56.220 -46.427 -77.037  0.00  0.00    +0.000 A 
ATOM      6 BR   UNL     1     -57.809 -46.890 -77.969  0.00  0.00    +0.000 Br
ATOM      7  C   UNL     1     -55.638 -47.396 -76.222  0.00  0.00    +0.000 A 
ATOM      8  C   UNL     1     -54.467 -47.103 -75.527  0.00  0.00    +0.000 A 
ATOM      9  C   UNL     1     -53.881 -45.842 -75.636  0.00  0.00    +0.000 A 
ATOM     10 CL   UNL     1     -52.416 -45.625 -74.738  0.00  0.00    +0.000 Cl
ATOM     11  C   UNL     1     -54.485 -44.867 -76.457  0.00  0.00    +0.000 A 
ATOM     12  C   UNL     1     -53.951 -43.499 -76.583  0.00  0.00    +0.000 A 
ATOM     13  O   UNL     1     -53.027 -43.174 -75.849  0.00  0.00    +0.000 OA
ATOM     14  H   UNL     1     -57.137 -44.349 -78.378  0.00  0.00    +0.000 HD
ENDROOT
BRANCH   1  16
ATOM     15  C   UNL     1     -52.745 -41.033 -78.562  0.00  0.00    +0.000 C 
ATOM     16  C   UNL     1     -53.942 -41.176 -77.627  0.00  0.00    +0.000 C 
ATOM     17  O   UNL     1     -54.353 -40.253 -76.976  0.00  0.00    +0.000 OA
ENDBRANCH   1  16
BRANCH   2  18
ATOM     18  S   UNL     1     -56.569 -41.878 -79.441  0.00  0.00    +0.000 S 
ATOM     19  O   UNL     1     -56.711 -42.780 -80.637  0.00  0.00    +0.000 OA
BRANCH  18  20
ATOM     20  C   UNL     1     -58.274 -41.710 -78.730  0.00  0.00    +0.000 C 
BRANCH  20  21
ATOM     21  C   UNL     1     -58.260 -41.602 -77.244  0.00  0.00    +0.000 A 
ATOM     22  C   UNL     1     -57.889 -40.502 -76.433  0.00  0.00    +0.000 A 
ATOM     23  C   UNL     1     -58.003 -40.974 -75.150  0.00  0.00    +0.000 A 
ATOM     24  C   UNL     1     -57.747 -40.399 -73.821  0.00  0.00    +0.000 C 
ATOM     25  O   UNL     1     -58.443 -42.259 -75.178  0.00  0.00    +0.000 OA
ATOM     26  N   UNL     1     -58.630 -42.651 -76.490  0.00  0.00    +0.000 NA
ENDBRANCH  20  21
ENDBRANCH  18  20
ENDBRANCH   2  18
TORSDOF 4
