REMARK VINA RESULT:    -5.339     14.181     17.302
REMARK INTER + INTRA:          -7.112
REMARK INTER:                  -6.485
REMARK INTRA:                  -0.627
REMARK UNBOUND:                -0.524
REMARK  Name = 
REMARK  6 active torsions:
REMARK  status: ('A' for Active; 'I' for Inactive)
REMARK    1  A    between atoms: C_1  and  C_2
REMARK    2  A    between atoms: C_2  and  C_4
REMARK    3  A    between atoms: C_5  and  S_6
REMARK    4  A    between atoms: S_6  and  C_8
REMARK    5  A    between atoms: C_8  and  C_9
REMARK    6  A    between atoms: C_11  and  C_12
REMARK                            x       y       z     vdW  Elec       q    Type
REMARK                         _______ _______ _______ _____ _____    ______ ____
ROOT
ATOM      1  C   UNL     1     -65.596 -48.286 -55.225  0.00  0.00    +0.000 A 
ATOM      2  C   UNL     1     -66.846 -48.792 -55.146  0.00  0.00    +0.000 A 
ATOM      3  N   UNL     1     -67.787 -48.667 -56.153  0.00  0.00    +0.000 N 
ATOM      4  C   UNL     1     -67.572 -47.890 -57.300  0.00  0.00    +0.000 A 
ATOM      5  C   UNL     1     -68.575 -47.763 -58.281  0.00  0.00    +0.000 A 
ATOM      6 BR   UNL     1     -70.279 -48.570 -58.048  0.00  0.00    +0.000 Br
ATOM      7  C   UNL     1     -68.350 -47.040 -59.448  0.00  0.00    +0.000 A 
ATOM      8  C   UNL     1     -67.110 -46.439 -59.656  0.00  0.00    +0.000 A 
ATOM      9  C   UNL     1     -66.091 -46.569 -58.707  0.00  0.00    +0.000 A 
ATOM     10 CL   UNL     1     -64.610 -45.769 -59.108  0.00  0.00    +0.000 Cl
ATOM     11  C   UNL     1     -66.312 -47.310 -57.528  0.00  0.00    +0.000 A 
ATOM     12  C   UNL     1     -65.283 -47.488 -56.465  0.00  0.00    +0.000 A 
ATOM     13  O   UNL     1     -64.190 -46.946 -56.577  0.00  0.00    +0.000 OA
ATOM     14  H   UNL     1     -68.759 -48.755 -55.856  0.00  0.00    +0.000 HD
ENDROOT
BRANCH   1  16
ATOM     15  C   UNL     1     -64.396 -47.343 -53.113  0.00  0.00    +0.000 C 
ATOM     16  C   UNL     1     -64.543 -48.432 -54.153  0.00  0.00    +0.000 C 
ATOM     17  O   UNL     1     -63.793 -49.407 -54.112  0.00  0.00    +0.000 OA
ENDBRANCH   1  16
BRANCH   2  18
ATOM     18  S   UNL     1     -67.467 -49.547 -53.608  0.00  0.00    +0.000 S 
ATOM     19  O   UNL     1     -68.962 -49.515 -53.778  0.00  0.00    +0.000 OA
BRANCH  18  20
ATOM     20  C   UNL     1     -66.965 -51.282 -53.900  0.00  0.00    +0.000 C 
BRANCH  20  21
ATOM     21  C   UNL     1     -67.126 -52.140 -52.688  0.00  0.00    +0.000 A 
ATOM     22  C   UNL     1     -68.120 -53.102 -52.373  0.00  0.00    +0.000 A 
ATOM     23  C   UNL     1     -67.751 -53.595 -51.144  0.00  0.00    +0.000 A 
ATOM     24  C   UNL     1     -68.325 -54.576 -50.206  0.00  0.00    +0.000 C 
ATOM     25  O   UNL     1     -66.593 -52.998 -50.759  0.00  0.00    +0.000 OA
ATOM     26  N   UNL     1     -66.194 -52.091 -51.724  0.00  0.00    +0.000 NA
ENDBRANCH  20  21
ENDBRANCH  18  20
ENDBRANCH   2  18
TORSDOF 4
