REMARK VINA RESULT:    -5.694     17.663     19.605
REMARK INTER + INTRA:          -8.158
REMARK INTER:                  -7.049
REMARK INTRA:                  -1.109
REMARK UNBOUND:                -0.800
REMARK  Name = 
REMARK  8 active torsions:
REMARK  status: ('A' for Active; 'I' for Inactive)
REMARK    1  A    between atoms: C_1  and  C_2
REMARK    2  A    between atoms: C_4  and  C_5
REMARK    3  A    between atoms: C_5  and  S_6
REMARK    4  A    between atoms: S_6  and  C_8
REMARK    5  A    between atoms: C_20  and  C_21
REMARK    6  A    between atoms: C_21  and  C_23
REMARK    7  A    between atoms: C_23  and  C_24
REMARK    8  A    between atoms: C_23  and  C_25
REMARK                            x       y       z     vdW  Elec       q    Type
REMARK                         _______ _______ _______ _____ _____    ______ ____
ROOT
ATOM      1  C   UNL     1     -47.661 -25.125 -62.484  0.00  0.00    +0.000 A 
ATOM      2  N   UNL     1     -47.576 -25.003 -63.868  0.00  0.00    +0.000 N 
ATOM      3  C   UNL     1     -48.346 -24.059 -64.575  0.00  0.00    +0.000 A 
ATOM      4  C   UNL     1     -47.997 -23.624 -65.867  0.00  0.00    +0.000 A 
ATOM      5 BR   UNL     1     -46.367 -24.167 -66.672  0.00  0.00    +0.000 Br
ATOM      6  C   UNL     1     -48.820 -22.746 -66.577  0.00  0.00    +0.000 A 
ATOM      7  C   UNL     1     -50.002 -22.285 -66.004  0.00  0.00    +0.000 A 
ATOM      8  C   UNL     1     -50.366 -22.702 -64.710  0.00  0.00    +0.000 A 
ATOM      9 CL   UNL     1     -51.816 -22.009 -64.078  0.00  0.00    +0.000 Cl
ATOM     10  C   UNL     1     -49.539 -23.593 -63.997  0.00  0.00    +0.000 A 
ATOM     11  C   UNL     1     -49.849 -24.117 -62.642  0.00  0.00    +0.000 A 
ATOM     12  O   UNL     1     -51.011 -24.153 -62.248  0.00  0.00    +0.000 OA
ATOM     13  C   UNL     1     -48.700 -24.623 -61.775  0.00  0.00    +0.000 A 
ATOM     14  H   UNL     1     -46.639 -25.196 -64.247  0.00  0.00    +0.000 HD
ENDROOT
BRANCH   1  15
ATOM     15  S   UNL     1     -46.126 -25.832 -61.776  0.00  0.00    +0.000 S 
ATOM     16  O   UNL     1     -45.038 -25.289 -62.663  0.00  0.00    +0.000 OA
BRANCH  15  17
ATOM     17  C   UNL     1     -46.298 -27.619 -62.101  0.00  0.00    +0.000 C 
BRANCH  17  21
ATOM     18  C   UNL     1     -50.660 -29.775 -60.334  0.00  0.00    +0.000 C 
ATOM     19  C   UNL     1     -49.521 -29.117 -61.011  0.00  0.00    +0.000 A 
ATOM     20  C   UNL     1     -48.249 -28.747 -60.640  0.00  0.00    +0.000 A 
ATOM     21  C   UNL     1     -47.671 -28.181 -61.812  0.00  0.00    +0.000 A 
ATOM     22  N   UNL     1     -48.565 -28.198 -62.815  0.00  0.00    +0.000 NA
ATOM     23  O   UNL     1     -49.712 -28.784 -62.314  0.00  0.00    +0.000 OA
ENDBRANCH  17  21
ENDBRANCH  15  17
ENDBRANCH   1  15
BRANCH  13  24
ATOM     24  C   UNL     1     -48.856 -24.463 -60.279  0.00  0.00    +0.000 C 
ATOM     25  O   UNL     1     -48.990 -25.453 -59.561  0.00  0.00    +0.000 OA
BRANCH  24  26
ATOM     26  C   UNL     1     -48.914 -23.068 -59.653  0.00  0.00    +0.000 C 
ATOM     27  C   UNL     1     -49.713 -23.064 -58.353  0.00  0.00    +0.000 C 
ATOM     28  C   UNL     1     -47.517 -22.487 -59.419  0.00  0.00    +0.000 C 
ENDBRANCH  24  26
ENDBRANCH  13  24
TORSDOF 5
