REMARK VINA RESULT:    -7.051      2.082      2.197
REMARK INTER + INTRA:          -9.441
REMARK INTER:                  -8.645
REMARK INTRA:                  -0.796
REMARK UNBOUND:                -0.741
REMARK  Name = 
REMARK  5 active torsions:
REMARK  status: ('A' for Active; 'I' for Inactive)
REMARK    1  A    between atoms: C_1  and  C_2
REMARK    2  A    between atoms: C_2  and  C_4
REMARK    3  A    between atoms: C_5  and  S_6
REMARK    4  A    between atoms: S_6  and  C_8
REMARK    5  A    between atoms: C_8  and  C_9
REMARK                            x       y       z     vdW  Elec       q    Type
REMARK                         _______ _______ _______ _____ _____    ______ ____
ROOT
ATOM      1  C   UNL     1     -54.638 -42.840 -78.637  0.00  0.00    +0.000 A 
ATOM      2  C   UNL     1     -54.295 -43.316 -77.420  0.00  0.00    +0.000 A 
ATOM      3  N   UNL     1     -54.433 -44.643 -77.049  0.00  0.00    +0.000 N 
ATOM      4  C   UNL     1     -55.188 -45.543 -77.820  0.00  0.00    +0.000 A 
ATOM      5  C   UNL     1     -55.515 -46.819 -77.328  0.00  0.00    +0.000 A 
ATOM      6 BR   UNL     1     -55.000 -47.352 -75.579  0.00  0.00    +0.000 Br
ATOM      7  C   UNL     1     -56.238 -47.717 -78.106  0.00  0.00    +0.000 A 
ATOM      8  C   UNL     1     -56.637 -47.351 -79.391  0.00  0.00    +0.000 A 
ATOM      9  C   UNL     1     -56.296 -46.097 -79.910  0.00  0.00    +0.000 A 
ATOM     10 CL   UNL     1     -56.905 -45.738 -81.487  0.00  0.00    +0.000 Cl
ATOM     11  C   UNL     1     -55.544 -45.199 -79.136  0.00  0.00    +0.000 A 
ATOM     12  C   UNL     1     -55.075 -43.874 -79.629  0.00  0.00    +0.000 A 
ATOM     13  O   UNL     1     -55.008 -43.634 -80.830  0.00  0.00    +0.000 OA
ATOM     14  H   UNL     1     -54.505 -44.788 -76.040  0.00  0.00    +0.000 HD
ENDROOT
BRANCH   1  16
ATOM     15  C   UNL     1     -53.335 -40.812 -79.619  0.00  0.00    +0.000 C 
ATOM     16  C   UNL     1     -54.602 -41.394 -79.037  0.00  0.00    +0.000 C 
ATOM     17  O   UNL     1     -55.594 -40.667 -78.907  0.00  0.00    +0.000 OA
ENDBRANCH   1  16
BRANCH   2  18
ATOM     18  S   UNL     1     -53.770 -42.199 -76.095  0.00  0.00    +0.000 S 
ATOM     19  O   UNL     1     -53.904 -43.036 -74.853  0.00  0.00    +0.000 OA
BRANCH  18  20
ATOM     20  C   UNL     1     -51.974 -42.119 -76.448  0.00  0.00    +0.000 C 
BRANCH  20  21
ATOM     21  C   UNL     1     -51.210 -40.884 -76.032  0.00  0.00    +0.000 A 
ATOM     22  C   UNL     1     -49.963 -40.929 -75.402  0.00  0.00    +0.000 A 
ATOM     23  C   UNL     1     -49.272 -39.750 -75.106  0.00  0.00    +0.000 A 
ATOM     24  C   UNL     1     -49.804 -38.512 -75.460  0.00  0.00    +0.000 A 
ATOM     25  C   UNL     1     -51.030 -38.452 -76.115  0.00  0.00    +0.000 A 
ATOM     26  C   UNL     1     -51.725 -39.628 -76.404  0.00  0.00    +0.000 A 
ENDBRANCH  20  21
ENDBRANCH  18  20
ENDBRANCH   2  18
TORSDOF 4
