REMARK VINA RESULT:    -5.387     10.675     13.339
REMARK INTER + INTRA:          -7.831
REMARK INTER:                  -6.628
REMARK INTRA:                  -1.203
REMARK UNBOUND:                -0.870
REMARK  Name = 
REMARK  8 active torsions:
REMARK  status: ('A' for Active; 'I' for Inactive)
REMARK    1  A    between atoms: C_1  and  C_2
REMARK    2  A    between atoms: C_4  and  C_5
REMARK    3  A    between atoms: C_5  and  S_6
REMARK    4  A    between atoms: S_6  and  C_8
REMARK    5  A    between atoms: C_20  and  C_21
REMARK    6  A    between atoms: C_21  and  C_23
REMARK    7  A    between atoms: C_23  and  C_24
REMARK    8  A    between atoms: C_23  and  C_25
REMARK                            x       y       z     vdW  Elec       q    Type
REMARK                         _______ _______ _______ _____ _____    ______ ____
ROOT
ATOM      1  C   UNL     1     -65.832 -42.673 -69.977  0.00  0.00    +0.000 A 
ATOM      2  N   UNL     1     -66.606 -42.206 -68.919  0.00  0.00    +0.000 N 
ATOM      3  C   UNL     1     -66.051 -41.428 -67.884  0.00  0.00    +0.000 A 
ATOM      4  C   UNL     1     -66.841 -40.609 -67.056  0.00  0.00    +0.000 A 
ATOM      5 BR   UNL     1     -68.694 -40.380 -67.392  0.00  0.00    +0.000 Br
ATOM      6  C   UNL     1     -66.275 -39.909 -65.987  0.00  0.00    +0.000 A 
ATOM      7  C   UNL     1     -64.911 -40.012 -65.733  0.00  0.00    +0.000 A 
ATOM      8  C   UNL     1     -64.102 -40.819 -66.554  0.00  0.00    +0.000 A 
ATOM      9 CL   UNL     1     -62.415 -40.811 -66.186  0.00  0.00    +0.000 Cl
ATOM     10  C   UNL     1     -64.674 -41.531 -67.628  0.00  0.00    +0.000 A 
ATOM     11  C   UNL     1     -63.913 -42.433 -68.531  0.00  0.00    +0.000 A 
ATOM     12  O   UNL     1     -62.863 -42.941 -68.150  0.00  0.00    +0.000 OA
ATOM     13  C   UNL     1     -64.480 -42.724 -69.918  0.00  0.00    +0.000 A 
ATOM     14  H   UNL     1     -67.577 -41.984 -69.179  0.00  0.00    +0.000 HD
ENDROOT
BRANCH   1  15
ATOM     15  S   UNL     1     -66.849 -42.983 -71.469  0.00  0.00    +0.000 S 
ATOM     16  O   UNL     1     -66.677 -41.732 -72.287  0.00  0.00    +0.000 OA
BRANCH  15  17
ATOM     17  C   UNL     1     -68.553 -43.016 -70.815  0.00  0.00    +0.000 C 
BRANCH  17  21
ATOM     18  C   UNL     1     -70.728 -47.654 -70.071  0.00  0.00    +0.000 C 
ATOM     19  C   UNL     1     -69.997 -46.369 -70.112  0.00  0.00    +0.000 A 
ATOM     20  C   UNL     1     -69.908 -45.327 -71.007  0.00  0.00    +0.000 A 
ATOM     21  C   UNL     1     -69.036 -44.383 -70.391  0.00  0.00    +0.000 A 
ATOM     22  N   UNL     1     -68.618 -44.856 -69.205  0.00  0.00    +0.000 NA
ATOM     23  O   UNL     1     -69.221 -46.088 -69.034  0.00  0.00    +0.000 OA
ENDBRANCH  17  21
ENDBRANCH  15  17
ENDBRANCH   1  15
BRANCH  13  24
ATOM     24  C   UNL     1     -63.477 -42.983 -71.021  0.00  0.00    +0.000 C 
ATOM     25  O   UNL     1     -63.260 -44.132 -71.402  0.00  0.00    +0.000 OA
BRANCH  24  26
ATOM     26  C   UNL     1     -62.678 -41.828 -71.625  0.00  0.00    +0.000 C 
ATOM     27  C   UNL     1     -63.364 -40.484 -71.396  0.00  0.00    +0.000 C 
ATOM     28  C   UNL     1     -61.242 -41.788 -71.097  0.00  0.00    +0.000 C 
ENDBRANCH  24  26
ENDBRANCH  13  24
TORSDOF 5
