REMARK VINA RESULT:    -6.133      2.144      2.617
REMARK INTER + INTRA:          -8.865
REMARK INTER:                  -8.246
REMARK INTRA:                  -0.619
REMARK UNBOUND:                -0.940
REMARK  Name = 
REMARK  6 active torsions:
REMARK  status: ('A' for Active; 'I' for Inactive)
REMARK    1  A    between atoms: C_1  and  C_2
REMARK    2  A    between atoms: C_4  and  C_5
REMARK    3  A    between atoms: C_5  and  S_6
REMARK    4  A    between atoms: S_6  and  C_8
REMARK    5  A    between atoms: C_20  and  C_21
REMARK    6  A    between atoms: C_21  and  C_23
REMARK                            x       y       z     vdW  Elec       q    Type
REMARK                         _______ _______ _______ _____ _____    ______ ____
ROOT
ATOM      1  C   UNL     1     -55.815 -41.859 -62.904  0.00  0.00    +0.000 A 
ATOM      2  N   UNL     1     -55.137 -43.081 -62.729  0.00  0.00    +0.000 N 
ATOM      3  C   UNL     1     -53.746 -43.183 -63.005  0.00  0.00    +0.000 A 
ATOM      4  C   UNL     1     -52.936 -44.218 -62.500  0.00  0.00    +0.000 A 
ATOM      5 BR   UNL     1     -53.616 -45.470 -61.248  0.00  0.00    +0.000 Br
ATOM      6  C   UNL     1     -51.594 -44.343 -62.886  0.00  0.00    +0.000 A 
ATOM      7  C   UNL     1     -51.037 -43.410 -63.768  0.00  0.00    +0.000 A 
ATOM      8  C   UNL     1     -51.820 -42.375 -64.280  0.00  0.00    +0.000 A 
ATOM      9 CL   UNL     1     -51.021 -41.235 -65.303  0.00  0.00    +0.000 Cl
ATOM     10  C   UNL     1     -53.171 -42.281 -63.914  0.00  0.00    +0.000 A 
ATOM     11  C   UNL     1     -54.096 -41.275 -64.470  0.00  0.00    +0.000 A 
ATOM     12  O   UNL     1     -53.959 -40.830 -65.603  0.00  0.00    +0.000 OA
ATOM     13  C   UNL     1     -55.270 -40.861 -63.634  0.00  0.00    +0.000 A 
ATOM     14  H   UNL     1     -55.425 -43.566 -61.868  0.00  0.00    +0.000 HD
ENDROOT
BRANCH   1  15
ATOM     15  S   UNL     1     -57.177 -41.644 -61.729  0.00  0.00    +0.000 S 
ATOM     16  O   UNL     1     -56.962 -42.731 -60.711  0.00  0.00    +0.000 OA
BRANCH  15  17
ATOM     17  C   UNL     1     -58.756 -41.984 -62.562  0.00  0.00    +0.000 C 
BRANCH  17  21
ATOM     18  C   UNL     1     -63.088 -39.318 -61.974  0.00  0.00    +0.000 C 
ATOM     19  C   UNL     1     -61.905 -40.199 -61.974  0.00  0.00    +0.000 A 
ATOM     20  C   UNL     1     -60.819 -40.359 -62.802  0.00  0.00    +0.000 A 
ATOM     21  C   UNL     1     -60.015 -41.322 -62.152  0.00  0.00    +0.000 A 
ATOM     22  N   UNL     1     -60.620 -41.764 -61.035  0.00  0.00    +0.000 NA
ATOM     23  O   UNL     1     -61.800 -41.057 -60.928  0.00  0.00    +0.000 OA
ENDBRANCH  17  21
ENDBRANCH  15  17
ENDBRANCH   1  15
BRANCH  13  24
ATOM     24  C   UNL     1     -55.514 -39.390 -63.630  0.00  0.00    +0.000 C 
ATOM     25  O   UNL     1     -56.636 -38.948 -63.810  0.00  0.00    +0.000 OA
BRANCH  24  26
ATOM     26  C   UNL     1     -54.384 -38.483 -63.356  0.00  0.00    +0.000 C 
ATOM     27  C   UNL     1     -54.638 -37.003 -63.220  0.00  0.00    +0.000 C 
ATOM     28  C   UNL     1     -53.881 -37.520 -64.406  0.00  0.00    +0.000 C 
ENDBRANCH  24  26
ENDBRANCH  13  24
TORSDOF 5
