REMARK VINA RESULT:    -5.812     13.869     15.588
REMARK INTER + INTRA:          -7.818
REMARK INTER:                  -7.084
REMARK INTRA:                  -0.735
REMARK UNBOUND:                -0.647
REMARK  Name = 
REMARK  6 active torsions:
REMARK  status: ('A' for Active; 'I' for Inactive)
REMARK    1  A    between atoms: C_1  and  C_2
REMARK    2  A    between atoms: C_2  and  C_4
REMARK    3  A    between atoms: C_5  and  S_6
REMARK    4  A    between atoms: S_6  and  C_8
REMARK    5  A    between atoms: C_8  and  C_9
REMARK    6  A    between atoms: C_11  and  C_12
REMARK                            x       y       z     vdW  Elec       q    Type
REMARK                         _______ _______ _______ _____ _____    ______ ____
ROOT
ATOM      1  C   UNL     1     -58.885 -39.001 -62.095  0.00  0.00    +0.000 A 
ATOM      2  C   UNL     1     -57.806 -39.641 -62.647  0.00  0.00    +0.000 A 
ATOM      3  N   UNL     1     -56.662 -38.960 -62.969  0.00  0.00    +0.000 N 
ATOM      4  C   UNL     1     -56.541 -37.566 -62.931  0.00  0.00    +0.000 A 
ATOM      5  C   UNL     1     -55.403 -36.932 -63.471  0.00  0.00    +0.000 A 
ATOM      6 BR   UNL     1     -54.018 -37.932 -64.308  0.00  0.00    +0.000 Br
ATOM      7  C   UNL     1     -55.265 -35.550 -63.412  0.00  0.00    +0.000 A 
ATOM      8  C   UNL     1     -56.273 -34.787 -62.828  0.00  0.00    +0.000 A 
ATOM      9  C   UNL     1     -57.419 -35.400 -62.307  0.00  0.00    +0.000 A 
ATOM     10 CL   UNL     1     -58.609 -34.329 -61.654  0.00  0.00    +0.000 Cl
ATOM     11  C   UNL     1     -57.547 -36.800 -62.355  0.00  0.00    +0.000 A 
ATOM     12  C   UNL     1     -58.682 -37.541 -61.771  0.00  0.00    +0.000 A 
ATOM     13  O   UNL     1     -59.432 -36.969 -60.988  0.00  0.00    +0.000 OA
ATOM     14  H   UNL     1     -55.909 -39.491 -63.408  0.00  0.00    +0.000 HD
ENDROOT
BRANCH   1  16
ATOM     15  C   UNL     1     -60.411 -40.396 -60.496  0.00  0.00    +0.000 C 
ATOM     16  C   UNL     1     -60.237 -39.588 -61.783  0.00  0.00    +0.000 C 
ATOM     17  O   UNL     1     -61.175 -39.420 -62.531  0.00  0.00    +0.000 OA
ENDBRANCH   1  16
BRANCH   2  18
ATOM     18  S   UNL     1     -57.805 -41.401 -63.191  0.00  0.00    +0.000 S 
ATOM     19  O   UNL     1     -58.968 -41.465 -64.159  0.00  0.00    +0.000 OA
BRANCH  18  20
ATOM     20  C   UNL     1     -56.301 -41.443 -64.261  0.00  0.00    +0.000 C 
BRANCH  20  21
ATOM     21  C   UNL     1     -55.203 -42.353 -63.812  0.00  0.00    +0.000 A 
ATOM     22  C   UNL     1     -53.799 -42.276 -63.980  0.00  0.00    +0.000 A 
ATOM     23  C   UNL     1     -53.314 -43.365 -63.290  0.00  0.00    +0.000 A 
ATOM     24  C   UNL     1     -51.967 -43.890 -63.024  0.00  0.00    +0.000 C 
ATOM     25  O   UNL     1     -54.350 -44.056 -62.751  0.00  0.00    +0.000 OA
ATOM     26  N   UNL     1     -55.534 -43.422 -63.066  0.00  0.00    +0.000 NA
ENDBRANCH  20  21
ENDBRANCH  18  20
ENDBRANCH   2  18
TORSDOF 4
