REMARK VINA RESULT:    -6.615      4.093      5.186
REMARK INTER + INTRA:          -8.904
REMARK INTER:                  -8.133
REMARK INTRA:                  -0.771
REMARK UNBOUND:                -0.741
REMARK  Name = 
REMARK  5 active torsions:
REMARK  status: ('A' for Active; 'I' for Inactive)
REMARK    1  A    between atoms: C_1  and  C_2
REMARK    2  A    between atoms: C_2  and  C_4
REMARK    3  A    between atoms: C_5  and  S_6
REMARK    4  A    between atoms: S_6  and  C_8
REMARK    5  A    between atoms: C_8  and  C_9
REMARK                            x       y       z     vdW  Elec       q    Type
REMARK                         _______ _______ _______ _____ _____    ______ ____
ROOT
ATOM      1  C   UNL     1     -58.462 -45.222 -77.989  0.00  0.00    +0.000 A 
ATOM      2  C   UNL     1     -57.701 -44.196 -77.552  0.00  0.00    +0.000 A 
ATOM      3  N   UNL     1     -56.423 -44.351 -77.042  0.00  0.00    +0.000 N 
ATOM      4  C   UNL     1     -55.924 -45.619 -76.695  0.00  0.00    +0.000 A 
ATOM      5  C   UNL     1     -54.726 -45.749 -75.970  0.00  0.00    +0.000 A 
ATOM      6 BR   UNL     1     -53.768 -44.218 -75.382  0.00  0.00    +0.000 Br
ATOM      7  C   UNL     1     -54.221 -47.006 -75.653  0.00  0.00    +0.000 A 
ATOM      8  C   UNL     1     -54.906 -48.148 -76.064  0.00  0.00    +0.000 A 
ATOM      9  C   UNL     1     -56.085 -48.040 -76.811  0.00  0.00    +0.000 A 
ATOM     10 CL   UNL     1     -56.874 -49.526 -77.203  0.00  0.00    +0.000 Cl
ATOM     11  C   UNL     1     -56.582 -46.773 -77.155  0.00  0.00    +0.000 A 
ATOM     12  C   UNL     1     -57.786 -46.560 -78.005  0.00  0.00    +0.000 A 
ATOM     13  O   UNL     1     -58.207 -47.446 -78.740  0.00  0.00    +0.000 OA
ATOM     14  H   UNL     1     -56.128 -43.596 -76.420  0.00  0.00    +0.000 HD
ENDROOT
BRANCH   1  16
ATOM     15  C   UNL     1     -60.997 -45.657 -77.584  0.00  0.00    +0.000 C 
ATOM     16  C   UNL     1     -59.887 -45.104 -78.448  0.00  0.00    +0.000 C 
ATOM     17  O   UNL     1     -60.173 -44.555 -79.517  0.00  0.00    +0.000 OA
ENDBRANCH   1  16
BRANCH   2  18
ATOM     18  S   UNL     1     -58.371 -42.517 -77.444  0.00  0.00    +0.000 S 
ATOM     19  O   UNL     1     -59.501 -42.650 -76.460  0.00  0.00    +0.000 OA
BRANCH  18  20
ATOM     20  C   UNL     1     -57.011 -41.697 -76.529  0.00  0.00    +0.000 C 
BRANCH  20  21
ATOM     21  C   UNL     1     -57.158 -41.502 -75.038  0.00  0.00    +0.000 A 
ATOM     22  C   UNL     1     -56.625 -42.384 -74.093  0.00  0.00    +0.000 A 
ATOM     23  C   UNL     1     -56.731 -42.112 -72.726  0.00  0.00    +0.000 A 
ATOM     24  C   UNL     1     -57.348 -40.944 -72.284  0.00  0.00    +0.000 A 
ATOM     25  C   UNL     1     -57.857 -40.041 -73.213  0.00  0.00    +0.000 A 
ATOM     26  C   UNL     1     -57.758 -40.315 -74.578  0.00  0.00    +0.000 A 
ENDBRANCH  20  21
ENDBRANCH  18  20
ENDBRANCH   2  18
TORSDOF 4
