REMARK VINA RESULT:    -4.975      4.266      4.985
REMARK INTER + INTRA:          -7.068
REMARK INTER:                  -6.460
REMARK INTRA:                  -0.608
REMARK UNBOUND:                -0.930
REMARK  Name = 
REMARK  6 active torsions:
REMARK  status: ('A' for Active; 'I' for Inactive)
REMARK    1  A    between atoms: C_1  and  C_2
REMARK    2  A    between atoms: C_2  and  C_4
REMARK    3  A    between atoms: C_5  and  S_6
REMARK    4  A    between atoms: S_6  and  C_8
REMARK    5  A    between atoms: C_8  and  C_9
REMARK    6  A    between atoms: C_11  and  C_12
REMARK                            x       y       z     vdW  Elec       q    Type
REMARK                         _______ _______ _______ _____ _____    ______ ____
ROOT
ATOM      1  C   UNL     1     -57.997 -40.205 -62.067  0.00  0.00    +0.000 A 
ATOM      2  C   UNL     1     -58.032 -38.853 -62.082  0.00  0.00    +0.000 A 
ATOM      3  N   UNL     1     -57.138 -38.074 -62.798  0.00  0.00    +0.000 N 
ATOM      4  C   UNL     1     -55.944 -38.617 -63.311  0.00  0.00    +0.000 A 
ATOM      5  C   UNL     1     -54.921 -37.789 -63.799  0.00  0.00    +0.000 A 
ATOM      6 BR   UNL     1     -55.084 -35.898 -63.742  0.00  0.00    +0.000 Br
ATOM      7  C   UNL     1     -53.752 -38.335 -64.324  0.00  0.00    +0.000 A 
ATOM      8  C   UNL     1     -53.598 -39.721 -64.368  0.00  0.00    +0.000 A 
ATOM      9  C   UNL     1     -54.623 -40.568 -63.917  0.00  0.00    +0.000 A 
ATOM     10 CL   UNL     1     -54.289 -42.258 -63.959  0.00  0.00    +0.000 Cl
ATOM     11  C   UNL     1     -55.810 -40.012 -63.416  0.00  0.00    +0.000 A 
ATOM     12  C   UNL     1     -56.984 -40.821 -62.988  0.00  0.00    +0.000 A 
ATOM     13  O   UNL     1     -57.151 -41.960 -63.409  0.00  0.00    +0.000 OA
ATOM     14  H   UNL     1     -57.036 -37.122 -62.435  0.00  0.00    +0.000 HD
ENDROOT
BRANCH   1  16
ATOM     15  C   UNL     1     -60.258 -41.453 -61.745  0.00  0.00    +0.000 C 
ATOM     16  C   UNL     1     -58.876 -41.089 -61.238  0.00  0.00    +0.000 C 
ATOM     17  O   UNL     1     -58.490 -41.531 -60.155  0.00  0.00    +0.000 OA
ENDBRANCH   1  16
BRANCH   2  18
ATOM     18  S   UNL     1     -59.179 -37.910 -61.022  0.00  0.00    +0.000 S 
ATOM     19  O   UNL     1     -58.266 -37.277 -60.006  0.00  0.00    +0.000 OA
BRANCH  18  20
ATOM     20  C   UNL     1     -59.593 -36.593 -62.229  0.00  0.00    +0.000 C 
BRANCH  20  21
ATOM     21  C   UNL     1     -60.831 -35.824 -61.902  0.00  0.00    +0.000 A 
ATOM     22  C   UNL     1     -61.806 -36.016 -60.889  0.00  0.00    +0.000 A 
ATOM     23  C   UNL     1     -62.660 -34.948 -61.018  0.00  0.00    +0.000 A 
ATOM     24  C   UNL     1     -63.878 -34.495 -60.319  0.00  0.00    +0.000 C 
ATOM     25  O   UNL     1     -62.225 -34.155 -62.032  0.00  0.00    +0.000 OA
ATOM     26  N   UNL     1     -61.081 -34.693 -62.583  0.00  0.00    +0.000 NA
ENDBRANCH  20  21
ENDBRANCH  18  20
ENDBRANCH   2  18
TORSDOF 4
