REMARK VINA RESULT:    -6.697     11.090     13.525
REMARK INTER + INTRA:          -9.576
REMARK INTER:                  -8.722
REMARK INTRA:                  -0.854
REMARK UNBOUND:                -0.922
REMARK  Name = 
REMARK  6 active torsions:
REMARK  status: ('A' for Active; 'I' for Inactive)
REMARK    1  A    between atoms: C_1  and  C_2
REMARK    2  A    between atoms: C_4  and  C_5
REMARK    3  A    between atoms: C_5  and  S_6
REMARK    4  A    between atoms: S_6  and  C_8
REMARK    5  A    between atoms: C_20  and  C_21
REMARK    6  A    between atoms: C_21  and  C_23
REMARK                            x       y       z     vdW  Elec       q    Type
REMARK                         _______ _______ _______ _____ _____    ______ ____
ROOT
ATOM      1  C   UNL     1     -57.740 -41.081 -62.722  0.00  0.00    +0.000 A 
ATOM      2  N   UNL     1     -57.257 -39.815 -62.338  0.00  0.00    +0.000 N 
ATOM      3  C   UNL     1     -56.180 -39.208 -63.041  0.00  0.00    +0.000 A 
ATOM      4  C   UNL     1     -55.905 -37.828 -62.981  0.00  0.00    +0.000 A 
ATOM      5 BR   UNL     1     -57.076 -36.634 -62.086  0.00  0.00    +0.000 Br
ATOM      6  C   UNL     1     -54.770 -37.288 -63.601  0.00  0.00    +0.000 A 
ATOM      7  C   UNL     1     -53.906 -38.126 -64.316  0.00  0.00    +0.000 A 
ATOM      8  C   UNL     1     -54.159 -39.496 -64.391  0.00  0.00    +0.000 A 
ATOM      9 CL   UNL     1     -53.075 -40.431 -65.356  0.00  0.00    +0.000 Cl
ATOM     10  C   UNL     1     -55.280 -40.030 -63.736  0.00  0.00    +0.000 A 
ATOM     11  C   UNL     1     -55.581 -41.474 -63.688  0.00  0.00    +0.000 A 
ATOM     12  O   UNL     1     -54.695 -42.318 -63.712  0.00  0.00    +0.000 OA
ATOM     13  C   UNL     1     -57.014 -41.888 -63.526  0.00  0.00    +0.000 A 
ATOM     14  H   UNL     1     -58.017 -39.163 -62.101  0.00  0.00    +0.000 HD
ENDROOT
BRANCH   1  15
ATOM     15  S   UNL     1     -59.516 -41.270 -62.416  0.00  0.00    +0.000 S 
ATOM     16  O   UNL     1     -59.995 -39.870 -62.142  0.00  0.00    +0.000 OA
BRANCH  15  17
ATOM     17  C   UNL     1     -59.770 -42.237 -60.899  0.00  0.00    +0.000 C 
BRANCH  17  21
ATOM     18  C   UNL     1     -61.847 -46.909 -61.174  0.00  0.00    +0.000 C 
ATOM     19  C   UNL     1     -61.413 -45.515 -60.969  0.00  0.00    +0.000 A 
ATOM     20  C   UNL     1     -60.307 -44.783 -61.329  0.00  0.00    +0.000 A 
ATOM     21  C   UNL     1     -60.588 -43.472 -60.885  0.00  0.00    +0.000 A 
ATOM     22  N   UNL     1     -61.763 -43.437 -60.233  0.00  0.00    +0.000 NA
ATOM     23  O   UNL     1     -62.276 -44.716 -60.290  0.00  0.00    +0.000 OA
ENDBRANCH  17  21
ENDBRANCH  15  17
ENDBRANCH   1  15
BRANCH  13  24
ATOM     24  C   UNL     1     -57.416 -43.014 -64.417  0.00  0.00    +0.000 C 
ATOM     25  O   UNL     1     -57.445 -44.157 -63.996  0.00  0.00    +0.000 OA
BRANCH  24  26
ATOM     26  C   UNL     1     -57.824 -42.713 -65.802  0.00  0.00    +0.000 C 
ATOM     27  C   UNL     1     -57.968 -43.840 -66.793  0.00  0.00    +0.000 C 
ATOM     28  C   UNL     1     -56.854 -42.850 -66.952  0.00  0.00    +0.000 C 
ENDBRANCH  24  26
ENDBRANCH  13  24
TORSDOF 5
