REMARK VINA RESULT:    -6.587      2.130      2.722
REMARK INTER + INTRA:          -8.864
REMARK INTER:                  -7.926
REMARK INTRA:                  -0.938
REMARK UNBOUND:                -0.736
REMARK  Name = 
REMARK  6 active torsions:
REMARK  status: ('A' for Active; 'I' for Inactive)
REMARK    1  A    between atoms: C_1  and  C_2
REMARK    2  A    between atoms: C_2  and  C_4
REMARK    3  A    between atoms: C_5  and  S_6
REMARK    4  A    between atoms: S_6  and  C_8
REMARK    5  A    between atoms: C_8  and  C_9
REMARK    6  A    between atoms: C_11  and  C_12
REMARK                            x       y       z     vdW  Elec       q    Type
REMARK                         _______ _______ _______ _____ _____    ______ ____
ROOT
ATOM      1  C   UNL     1     -54.658 -42.443 -77.164  0.00  0.00    +0.000 A 
ATOM      2  C   UNL     1     -55.791 -42.820 -77.798  0.00  0.00    +0.000 A 
ATOM      3  N   UNL     1     -56.393 -44.050 -77.599  0.00  0.00    +0.000 N 
ATOM      4  C   UNL     1     -55.727 -45.103 -76.946  0.00  0.00    +0.000 A 
ATOM      5  C   UNL     1     -56.247 -46.409 -76.958  0.00  0.00    +0.000 A 
ATOM      6 BR   UNL     1     -57.835 -46.818 -77.915  0.00  0.00    +0.000 Br
ATOM      7  C   UNL     1     -55.600 -47.440 -76.282  0.00  0.00    +0.000 A 
ATOM      8  C   UNL     1     -54.426 -47.174 -75.580  0.00  0.00    +0.000 A 
ATOM      9  C   UNL     1     -53.907 -45.874 -75.532  0.00  0.00    +0.000 A 
ATOM     10 CL   UNL     1     -52.411 -45.685 -74.688  0.00  0.00    +0.000 Cl
ATOM     11  C   UNL     1     -54.573 -44.829 -76.192  0.00  0.00    +0.000 A 
ATOM     12  C   UNL     1     -54.142 -43.407 -76.132  0.00  0.00    +0.000 A 
ATOM     13  O   UNL     1     -53.413 -43.007 -75.232  0.00  0.00    +0.000 OA
ATOM     14  H   UNL     1     -56.984 -44.353 -78.378  0.00  0.00    +0.000 HD
ENDROOT
BRANCH   1  16
ATOM     15  C   UNL     1     -52.684 -41.171 -78.297  0.00  0.00    +0.000 C 
ATOM     16  C   UNL     1     -53.912 -41.161 -77.406  0.00  0.00    +0.000 C 
ATOM     17  O   UNL     1     -54.281 -40.108 -76.891  0.00  0.00    +0.000 OA
ENDBRANCH   1  16
BRANCH   2  18
ATOM     18  S   UNL     1     -56.560 -41.792 -79.093  0.00  0.00    +0.000 S 
ATOM     19  O   UNL     1     -56.780 -42.765 -80.219  0.00  0.00    +0.000 OA
BRANCH  18  20
ATOM     20  C   UNL     1     -58.193 -41.553 -78.289  0.00  0.00    +0.000 C 
BRANCH  20  21
ATOM     21  C   UNL     1     -58.140 -41.420 -76.800  0.00  0.00    +0.000 A 
ATOM     22  C   UNL     1     -57.648 -40.374 -75.977  0.00  0.00    +0.000 A 
ATOM     23  C   UNL     1     -57.963 -40.759 -74.697  0.00  0.00    +0.000 A 
ATOM     24  C   UNL     1     -57.773 -40.170 -73.357  0.00  0.00    +0.000 C 
ATOM     25  O   UNL     1     -58.604 -41.955 -74.739  0.00  0.00    +0.000 OA
ATOM     26  N   UNL     1     -58.722 -42.371 -76.051  0.00  0.00    +0.000 NA
ENDBRANCH  20  21
ENDBRANCH  18  20
ENDBRANCH   2  18
TORSDOF 4
