REMARK VINA RESULT:    -5.937     14.627     15.460
REMARK INTER + INTRA:          -8.044
REMARK INTER:                  -7.035
REMARK INTRA:                  -1.009
REMARK UNBOUND:                -0.720
REMARK  Name = 
REMARK  6 active torsions:
REMARK  status: ('A' for Active; 'I' for Inactive)
REMARK    1  A    between atoms: C_1  and  C_2
REMARK    2  A    between atoms: C_2  and  C_4
REMARK    3  A    between atoms: C_5  and  S_6
REMARK    4  A    between atoms: S_6  and  C_8
REMARK    5  A    between atoms: C_8  and  C_9
REMARK    6  A    between atoms: C_11  and  C_12
REMARK                            x       y       z     vdW  Elec       q    Type
REMARK                         _______ _______ _______ _____ _____    ______ ____
ROOT
ATOM      1  C   UNL     1     -56.528 -42.199 -63.098  0.00  0.00    +0.000 A 
ATOM      2  C   UNL     1     -57.154 -41.485 -62.130  0.00  0.00    +0.000 A 
ATOM      3  N   UNL     1     -56.842 -41.597 -60.787  0.00  0.00    +0.000 N 
ATOM      4  C   UNL     1     -55.958 -42.572 -60.287  0.00  0.00    +0.000 A 
ATOM      5  C   UNL     1     -55.720 -42.697 -58.909  0.00  0.00    +0.000 A 
ATOM      6 BR   UNL     1     -56.662 -41.626 -57.654  0.00  0.00    +0.000 Br
ATOM      7  C   UNL     1     -54.794 -43.618 -58.417  0.00  0.00    +0.000 A 
ATOM      8  C   UNL     1     -54.086 -44.423 -59.306  0.00  0.00    +0.000 A 
ATOM      9  C   UNL     1     -54.298 -44.313 -60.681  0.00  0.00    +0.000 A 
ATOM     10 CL   UNL     1     -53.355 -45.391 -61.652  0.00  0.00    +0.000 Cl
ATOM     11  C   UNL     1     -55.227 -43.375 -61.177  0.00  0.00    +0.000 A 
ATOM     12  C   UNL     1     -55.505 -43.200 -62.625  0.00  0.00    +0.000 A 
ATOM     13  O   UNL     1     -54.922 -43.908 -63.443  0.00  0.00    +0.000 OA
ATOM     14  H   UNL     1     -57.540 -41.250 -60.131  0.00  0.00    +0.000 HD
ENDROOT
BRANCH   1  16
ATOM     15  C   UNL     1     -57.835 -42.987 -65.208  0.00  0.00    +0.000 C 
ATOM     16  C   UNL     1     -56.800 -42.085 -64.575  0.00  0.00    +0.000 C 
ATOM     17  O   UNL     1     -56.187 -41.282 -65.287  0.00  0.00    +0.000 OA
ENDBRANCH   1  16
BRANCH   2  18
ATOM     18  S   UNL     1     -58.586 -40.419 -62.522  0.00  0.00    +0.000 S 
ATOM     19  O   UNL     1     -59.616 -40.810 -61.498  0.00  0.00    +0.000 OA
BRANCH  18  20
ATOM     20  C   UNL     1     -57.933 -38.798 -61.986  0.00  0.00    +0.000 C 
BRANCH  20  21
ATOM     21  C   UNL     1     -56.532 -38.551 -62.453  0.00  0.00    +0.000 A 
ATOM     22  C   UNL     1     -56.023 -38.324 -63.759  0.00  0.00    +0.000 A 
ATOM     23  C   UNL     1     -54.675 -38.144 -63.586  0.00  0.00    +0.000 A 
ATOM     24  C   UNL     1     -53.532 -37.914 -64.491  0.00  0.00    +0.000 C 
ATOM     25  O   UNL     1     -54.388 -38.212 -62.258  0.00  0.00    +0.000 OA
ATOM     26  N   UNL     1     -55.547 -38.458 -61.546  0.00  0.00    +0.000 NA
ENDBRANCH  20  21
ENDBRANCH  18  20
ENDBRANCH   2  18
TORSDOF 4
