REMARK VINA RESULT:    -6.401     12.459     14.934
REMARK INTER + INTRA:          -9.212
REMARK INTER:                  -8.633
REMARK INTRA:                  -0.578
REMARK UNBOUND:                -0.940
REMARK  Name = 
REMARK  6 active torsions:
REMARK  status: ('A' for Active; 'I' for Inactive)
REMARK    1  A    between atoms: C_1  and  C_2
REMARK    2  A    between atoms: C_4  and  C_5
REMARK    3  A    between atoms: C_5  and  S_6
REMARK    4  A    between atoms: S_6  and  C_8
REMARK    5  A    between atoms: C_20  and  C_21
REMARK    6  A    between atoms: C_21  and  C_23
REMARK                            x       y       z     vdW  Elec       q    Type
REMARK                         _______ _______ _______ _____ _____    ______ ____
ROOT
ATOM      1  C   UNL     1     -55.460 -42.462 -77.649  0.00  0.00    +0.000 A 
ATOM      2  N   UNL     1     -56.775 -42.891 -77.384  0.00  0.00    +0.000 N 
ATOM      3  C   UNL     1     -57.391 -42.605 -76.135  0.00  0.00    +0.000 A 
ATOM      4  C   UNL     1     -58.784 -42.646 -75.938  0.00  0.00    +0.000 A 
ATOM      5 BR   UNL     1     -59.971 -42.914 -77.394  0.00  0.00    +0.000 Br
ATOM      6  C   UNL     1     -59.343 -42.466 -74.665  0.00  0.00    +0.000 A 
ATOM      7  C   UNL     1     -58.506 -42.214 -73.572  0.00  0.00    +0.000 A 
ATOM      8  C   UNL     1     -57.122 -42.167 -73.742  0.00  0.00    +0.000 A 
ATOM      9 CL   UNL     1     -56.184 -41.778 -72.345  0.00  0.00    +0.000 Cl
ATOM     10  C   UNL     1     -56.574 -42.385 -75.015  0.00  0.00    +0.000 A 
ATOM     11  C   UNL     1     -55.122 -42.439 -75.276  0.00  0.00    +0.000 A 
ATOM     12  O   UNL     1     -54.329 -42.831 -74.429  0.00  0.00    +0.000 OA
ATOM     13  C   UNL     1     -54.640 -42.073 -76.648  0.00  0.00    +0.000 A 
ATOM     14  H   UNL     1     -57.398 -42.760 -78.193  0.00  0.00    +0.000 HD
ENDROOT
BRANCH   1  15
ATOM     15  S   UNL     1     -55.193 -42.078 -79.400  0.00  0.00    +0.000 S 
ATOM     16  O   UNL     1     -56.514 -42.383 -80.051  0.00  0.00    +0.000 OA
BRANCH  15  17
ATOM     17  C   UNL     1     -53.967 -43.226 -80.093  0.00  0.00    +0.000 C 
BRANCH  17  21
ATOM     18  C   UNL     1     -50.269 -42.079 -83.443  0.00  0.00    +0.000 C 
ATOM     19  C   UNL     1     -51.462 -42.423 -82.648  0.00  0.00    +0.000 A 
ATOM     20  C   UNL     1     -51.695 -42.689 -81.320  0.00  0.00    +0.000 A 
ATOM     21  C   UNL     1     -53.096 -42.849 -81.229  0.00  0.00    +0.000 A 
ATOM     22  N   UNL     1     -53.660 -42.754 -82.446  0.00  0.00    +0.000 NA
ATOM     23  O   UNL     1     -52.635 -42.486 -83.329  0.00  0.00    +0.000 OA
ENDBRANCH  17  21
ENDBRANCH  15  17
ENDBRANCH   1  15
BRANCH  13  24
ATOM     24  C   UNL     1     -53.433 -41.198 -76.646  0.00  0.00    +0.000 C 
ATOM     25  O   UNL     1     -53.548 -39.985 -76.669  0.00  0.00    +0.000 OA
BRANCH  24  26
ATOM     26  C   UNL     1     -52.100 -41.825 -76.566  0.00  0.00    +0.000 C 
ATOM     27  C   UNL     1     -50.922 -41.005 -76.108  0.00  0.00    +0.000 C 
ATOM     28  C   UNL     1     -51.002 -41.456 -77.535  0.00  0.00    +0.000 C 
ENDBRANCH  24  26
ENDBRANCH  13  24
TORSDOF 5
