REMARK VINA RESULT:    -5.766      3.651      5.872
REMARK INTER + INTRA:          -7.830
REMARK INTER:                  -6.840
REMARK INTRA:                  -0.989
REMARK UNBOUND:                -0.716
REMARK  Name = 
REMARK  6 active torsions:
REMARK  status: ('A' for Active; 'I' for Inactive)
REMARK    1  A    between atoms: C_1  and  C_2
REMARK    2  A    between atoms: C_2  and  C_4
REMARK    3  A    between atoms: C_5  and  S_6
REMARK    4  A    between atoms: S_6  and  C_8
REMARK    5  A    between atoms: C_8  and  C_9
REMARK    6  A    between atoms: C_11  and  C_12
REMARK                            x       y       z     vdW  Elec       q    Type
REMARK                         _______ _______ _______ _____ _____    ______ ____
ROOT
ATOM      1  C   UNL     1     -55.442 -43.812 -77.756  0.00  0.00    +0.000 A 
ATOM      2  C   UNL     1     -55.662 -42.675 -78.453  0.00  0.00    +0.000 A 
ATOM      3  N   UNL     1     -54.833 -41.571 -78.393  0.00  0.00    +0.000 N 
ATOM      4  C   UNL     1     -53.772 -41.467 -77.477  0.00  0.00    +0.000 A 
ATOM      5  C   UNL     1     -52.991 -40.300 -77.412  0.00  0.00    +0.000 A 
ATOM      6 BR   UNL     1     -53.391 -38.790 -78.496  0.00  0.00    +0.000 Br
ATOM      7  C   UNL     1     -51.904 -40.210 -76.546  0.00  0.00    +0.000 A 
ATOM      8  C   UNL     1     -51.578 -41.298 -75.741  0.00  0.00    +0.000 A 
ATOM      9  C   UNL     1     -52.324 -42.478 -75.803  0.00  0.00    +0.000 A 
ATOM     10 CL   UNL     1     -51.804 -43.735 -74.735  0.00  0.00    +0.000 Cl
ATOM     11  C   UNL     1     -53.417 -42.575 -76.691  0.00  0.00    +0.000 A 
ATOM     12  C   UNL     1     -54.259 -43.798 -76.826  0.00  0.00    +0.000 A 
ATOM     13  O   UNL     1     -54.012 -44.787 -76.143  0.00  0.00    +0.000 OA
ATOM     14  H   UNL     1     -55.269 -40.684 -78.653  0.00  0.00    +0.000 HD
ENDROOT
BRANCH   1  16
ATOM     15  C   UNL     1     -56.000 -46.123 -78.833  0.00  0.00    +0.000 C 
ATOM     16  C   UNL     1     -56.317 -45.040 -77.825  0.00  0.00    +0.000 C 
ATOM     17  O   UNL     1     -57.292 -45.183 -77.085  0.00  0.00    +0.000 OA
ENDBRANCH   1  16
BRANCH   2  18
ATOM     18  S   UNL     1     -57.192 -42.431 -79.414  0.00  0.00    +0.000 S 
ATOM     19  O   UNL     1     -57.864 -41.280 -78.714  0.00  0.00    +0.000 OA
BRANCH  18  20
ATOM     20  C   UNL     1     -56.479 -41.740 -80.951  0.00  0.00    +0.000 C 
BRANCH  20  21
ATOM     21  C   UNL     1     -55.271 -42.496 -81.404  0.00  0.00    +0.000 A 
ATOM     22  C   UNL     1     -55.135 -43.852 -81.803  0.00  0.00    +0.000 A 
ATOM     23  C   UNL     1     -53.803 -43.992 -82.107  0.00  0.00    +0.000 A 
ATOM     24  C   UNL     1     -52.951 -45.121 -82.525  0.00  0.00    +0.000 C 
ATOM     25  O   UNL     1     -53.185 -42.792 -81.957  0.00  0.00    +0.000 OA
ATOM     26  N   UNL     1     -54.101 -41.850 -81.524  0.00  0.00    +0.000 NA
ENDBRANCH  20  21
ENDBRANCH  18  20
ENDBRANCH   2  18
TORSDOF 4
