REMARK VINA RESULT:    -5.517     10.322     12.099
REMARK INTER + INTRA:          -7.829
REMARK INTER:                  -6.724
REMARK INTRA:                  -1.104
REMARK UNBOUND:                -0.699
REMARK  Name = 
REMARK  8 active torsions:
REMARK  status: ('A' for Active; 'I' for Inactive)
REMARK    1  A    between atoms: C_1  and  C_2
REMARK    2  A    between atoms: C_4  and  C_5
REMARK    3  A    between atoms: C_5  and  S_6
REMARK    4  A    between atoms: S_6  and  C_8
REMARK    5  A    between atoms: C_20  and  C_21
REMARK    6  A    between atoms: C_21  and  C_23
REMARK    7  A    between atoms: C_23  and  C_24
REMARK    8  A    between atoms: C_23  and  C_25
REMARK                            x       y       z     vdW  Elec       q    Type
REMARK                         _______ _______ _______ _____ _____    ______ ____
ROOT
ATOM      1  C   UNL     1     -57.601 -32.089 -60.001  0.00  0.00    +0.000 A 
ATOM      2  N   UNL     1     -58.434 -31.908 -61.100  0.00  0.00    +0.000 N 
ATOM      3  C   UNL     1     -58.225 -30.864 -62.022  0.00  0.00    +0.000 A 
ATOM      4  C   UNL     1     -58.760 -30.895 -63.324  0.00  0.00    +0.000 A 
ATOM      5 BR   UNL     1     -59.664 -32.432 -63.970  0.00  0.00    +0.000 Br
ATOM      6  C   UNL     1     -58.603 -29.810 -64.191  0.00  0.00    +0.000 A 
ATOM      7  C   UNL     1     -57.906 -28.681 -63.773  0.00  0.00    +0.000 A 
ATOM      8  C   UNL     1     -57.357 -28.633 -62.478  0.00  0.00    +0.000 A 
ATOM      9 CL   UNL     1     -56.453 -27.211 -62.098  0.00  0.00    +0.000 Cl
ATOM     10  C   UNL     1     -57.521 -29.724 -61.600  0.00  0.00    +0.000 A 
ATOM     11  C   UNL     1     -57.010 -29.758 -60.206  0.00  0.00    +0.000 A 
ATOM     12  O   UNL     1     -56.800 -28.710 -59.602  0.00  0.00    +0.000 OA
ATOM     13  C   UNL     1     -56.777 -31.114 -59.547  0.00  0.00    +0.000 A 
ATOM     14  H   UNL     1     -58.809 -32.785 -61.488  0.00  0.00    +0.000 HD
ENDROOT
BRANCH   1  15
ATOM     15  S   UNL     1     -57.615 -33.830 -59.426  0.00  0.00    +0.000 S 
ATOM     16  O   UNL     1     -56.159 -34.210 -59.397  0.00  0.00    +0.000 OA
BRANCH  15  17
ATOM     17  C   UNL     1     -58.417 -34.719 -60.803  0.00  0.00    +0.000 C 
BRANCH  17  21
ATOM     18  C   UNL     1     -55.059 -36.258 -64.430  0.00  0.00    +0.000 C 
ATOM     19  C   UNL     1     -56.016 -36.015 -63.329  0.00  0.00    +0.000 A 
ATOM     20  C   UNL     1     -56.614 -34.901 -62.785  0.00  0.00    +0.000 A 
ATOM     21  C   UNL     1     -57.461 -35.400 -61.754  0.00  0.00    +0.000 A 
ATOM     22  N   UNL     1     -57.350 -36.737 -61.681  0.00  0.00    +0.000 NA
ATOM     23  O   UNL     1     -56.454 -37.115 -62.664  0.00  0.00    +0.000 OA
ENDBRANCH  17  21
ENDBRANCH  15  17
ENDBRANCH   1  15
BRANCH  13  24
ATOM     24  C   UNL     1     -55.660 -31.194 -58.531  0.00  0.00    +0.000 C 
ATOM     25  O   UNL     1     -54.496 -31.337 -58.901  0.00  0.00    +0.000 OA
BRANCH  24  26
ATOM     26  C   UNL     1     -55.973 -31.164 -57.034  0.00  0.00    +0.000 C 
ATOM     27  C   UNL     1     -57.436 -30.817 -56.769  0.00  0.00    +0.000 C 
ATOM     28  C   UNL     1     -55.607 -32.483 -56.347  0.00  0.00    +0.000 C 
ENDBRANCH  24  26
ENDBRANCH  13  24
TORSDOF 5
