REMARK VINA RESULT:    -7.428      0.000      0.000
REMARK INTER + INTRA:         -10.508
REMARK INTER:                  -9.599
REMARK INTRA:                  -0.910
REMARK UNBOUND:                -0.910
REMARK  Name = 
REMARK  6 active torsions:
REMARK  status: ('A' for Active; 'I' for Inactive)
REMARK    1  A    between atoms: C_1  and  C_2
REMARK    2  A    between atoms: C_4  and  C_5
REMARK    3  A    between atoms: C_5  and  S_6
REMARK    4  A    between atoms: S_6  and  C_8
REMARK    5  A    between atoms: C_20  and  C_21
REMARK    6  A    between atoms: C_21  and  C_23
REMARK                            x       y       z     vdW  Elec       q    Type
REMARK                         _______ _______ _______ _____ _____    ______ ____
ROOT
ATOM      1  C   UNL     1     -55.869 -42.778 -76.826  0.00  0.00    +0.000 A 
ATOM      2  N   UNL     1     -54.558 -43.163 -76.487  0.00  0.00    +0.000 N 
ATOM      3  C   UNL     1     -53.534 -42.188 -76.338  0.00  0.00    +0.000 A 
ATOM      4  C   UNL     1     -52.336 -42.433 -75.639  0.00  0.00    +0.000 A 
ATOM      5 BR   UNL     1     -52.075 -44.048 -74.681  0.00  0.00    +0.000 Br
ATOM      6  C   UNL     1     -51.307 -41.482 -75.609  0.00  0.00    +0.000 A 
ATOM      7  C   UNL     1     -51.478 -40.255 -76.260  0.00  0.00    +0.000 A 
ATOM      8  C   UNL     1     -52.657 -39.988 -76.957  0.00  0.00    +0.000 A 
ATOM      9 CL   UNL     1     -52.800 -38.420 -77.665  0.00  0.00    +0.000 Cl
ATOM     10  C   UNL     1     -53.666 -40.963 -77.010  0.00  0.00    +0.000 A 
ATOM     11  C   UNL     1     -54.908 -40.805 -77.791  0.00  0.00    +0.000 A 
ATOM     12  O   UNL     1     -54.943 -40.141 -78.820  0.00  0.00    +0.000 OA
ATOM     13  C   UNL     1     -56.125 -41.553 -77.335  0.00  0.00    +0.000 A 
ATOM     14  H   UNL     1     -54.541 -43.895 -75.765  0.00  0.00    +0.000 HD
ENDROOT
BRANCH   1  15
ATOM     15  S   UNL     1     -57.123 -43.872 -76.107  0.00  0.00    +0.000 S 
ATOM     16  O   UNL     1     -57.878 -44.400 -77.296  0.00  0.00    +0.000 OA
BRANCH  15  17
ATOM     17  C   UNL     1     -58.287 -42.890 -75.116  0.00  0.00    +0.000 C 
BRANCH  17  21
ATOM     18  C   UNL     1     -56.077 -40.937 -70.931  0.00  0.00    +0.000 C 
ATOM     19  C   UNL     1     -56.889 -41.397 -72.072  0.00  0.00    +0.000 A 
ATOM     20  C   UNL     1     -56.631 -42.117 -73.215  0.00  0.00    +0.000 A 
ATOM     21  C   UNL     1     -57.894 -42.278 -73.826  0.00  0.00    +0.000 A 
ATOM     22  N   UNL     1     -58.843 -41.631 -73.126  0.00  0.00    +0.000 NA
ATOM     23  O   UNL     1     -58.209 -41.083 -72.030  0.00  0.00    +0.000 OA
ENDBRANCH  17  21
ENDBRANCH  15  17
ENDBRANCH   1  15
BRANCH  13  24
ATOM     24  C   UNL     1     -57.374 -40.739 -77.366  0.00  0.00    +0.000 C 
ATOM     25  O   UNL     1     -57.575 -39.879 -76.526  0.00  0.00    +0.000 OA
BRANCH  24  26
ATOM     26  C   UNL     1     -58.340 -40.961 -78.458  0.00  0.00    +0.000 C 
ATOM     27  C   UNL     1     -59.630 -40.183 -78.476  0.00  0.00    +0.000 C 
ATOM     28  C   UNL     1     -59.657 -41.657 -78.210  0.00  0.00    +0.000 C 
ENDBRANCH  24  26
ENDBRANCH  13  24
TORSDOF 5
