REMARK VINA RESULT:    -7.542      2.754      3.905
REMARK INTER + INTRA:         -10.446
REMARK INTER:                  -9.311
REMARK INTRA:                  -1.135
REMARK UNBOUND:                -0.699
REMARK  Name = 
REMARK  8 active torsions:
REMARK  status: ('A' for Active; 'I' for Inactive)
REMARK    1  A    between atoms: C_1  and  C_2
REMARK    2  A    between atoms: C_4  and  C_5
REMARK    3  A    between atoms: C_5  and  S_6
REMARK    4  A    between atoms: S_6  and  C_8
REMARK    5  A    between atoms: C_20  and  C_21
REMARK    6  A    between atoms: C_21  and  C_23
REMARK    7  A    between atoms: C_23  and  C_24
REMARK    8  A    between atoms: C_23  and  C_25
REMARK                            x       y       z     vdW  Elec       q    Type
REMARK                         _______ _______ _______ _____ _____    ______ ____
ROOT
ATOM      1  C   UNL     1     -55.496 -41.953 -62.930  0.00  0.00    +0.000 A 
ATOM      2  N   UNL     1     -54.801 -43.158 -62.898  0.00  0.00    +0.000 N 
ATOM      3  C   UNL     1     -53.432 -43.231 -63.221  0.00  0.00    +0.000 A 
ATOM      4  C   UNL     1     -52.621 -44.304 -62.808  0.00  0.00    +0.000 A 
ATOM      5 BR   UNL     1     -53.293 -45.645 -61.646  0.00  0.00    +0.000 Br
ATOM      6  C   UNL     1     -51.284 -44.391 -63.208  0.00  0.00    +0.000 A 
ATOM      7  C   UNL     1     -50.738 -43.403 -64.022  0.00  0.00    +0.000 A 
ATOM      8  C   UNL     1     -51.530 -42.317 -64.440  0.00  0.00    +0.000 A 
ATOM      9 CL   UNL     1     -50.724 -41.119 -65.387  0.00  0.00    +0.000 Cl
ATOM     10  C   UNL     1     -52.880 -42.234 -64.042  0.00  0.00    +0.000 A 
ATOM     11  C   UNL     1     -53.807 -41.148 -64.455  0.00  0.00    +0.000 A 
ATOM     12  O   UNL     1     -53.590 -40.513 -65.482  0.00  0.00    +0.000 OA
ATOM     13  C   UNL     1     -55.030 -40.865 -63.588  0.00  0.00    +0.000 A 
ATOM     14  H   UNL     1     -55.129 -43.810 -62.171  0.00  0.00    +0.000 HD
ENDROOT
BRANCH   1  15
ATOM     15  S   UNL     1     -56.952 -41.987 -61.817  0.00  0.00    +0.000 S 
ATOM     16  O   UNL     1     -56.451 -42.701 -60.591  0.00  0.00    +0.000 OA
BRANCH  15  17
ATOM     17  C   UNL     1     -58.120 -43.085 -62.688  0.00  0.00    +0.000 C 
BRANCH  17  21
ATOM     18  C   UNL     1     -57.961 -42.866 -67.858  0.00  0.00    +0.000 C 
ATOM     19  C   UNL     1     -58.139 -42.770 -66.393  0.00  0.00    +0.000 A 
ATOM     20  C   UNL     1     -57.735 -43.519 -65.311  0.00  0.00    +0.000 A 
ATOM     21  C   UNL     1     -58.238 -42.826 -64.172  0.00  0.00    +0.000 A 
ATOM     22  N   UNL     1     -58.922 -41.738 -64.567  0.00  0.00    +0.000 NA
ATOM     23  O   UNL     1     -58.854 -41.706 -65.946  0.00  0.00    +0.000 OA
ENDBRANCH  17  21
ENDBRANCH  15  17
ENDBRANCH   1  15
BRANCH  13  24
ATOM     24  C   UNL     1     -55.520 -39.435 -63.550  0.00  0.00    +0.000 C 
ATOM     25  O   UNL     1     -56.660 -39.161 -63.924  0.00  0.00    +0.000 OA
BRANCH  24  26
ATOM     26  C   UNL     1     -54.583 -38.308 -63.112  0.00  0.00    +0.000 C 
ATOM     27  C   UNL     1     -54.478 -37.214 -64.171  0.00  0.00    +0.000 C 
ATOM     28  C   UNL     1     -55.002 -37.707 -61.767  0.00  0.00    +0.000 C 
ENDBRANCH  24  26
ENDBRANCH  13  24
TORSDOF 5
