REMARK VINA RESULT:    -6.101     14.182     16.526
REMARK INTER + INTRA:          -8.785
REMARK INTER:                  -7.940
REMARK INTRA:                  -0.845
REMARK UNBOUND:                -0.901
REMARK  Name = 
REMARK  6 active torsions:
REMARK  status: ('A' for Active; 'I' for Inactive)
REMARK    1  A    between atoms: C_1  and  C_2
REMARK    2  A    between atoms: C_4  and  C_5
REMARK    3  A    between atoms: C_5  and  S_6
REMARK    4  A    between atoms: S_6  and  C_8
REMARK    5  A    between atoms: C_20  and  C_21
REMARK    6  A    between atoms: C_21  and  C_23
REMARK                            x       y       z     vdW  Elec       q    Type
REMARK                         _______ _______ _______ _____ _____    ______ ____
ROOT
ATOM      1  C   UNL     1     -53.345 -42.664 -79.089  0.00  0.00    +0.000 A 
ATOM      2  N   UNL     1     -54.503 -43.451 -79.245  0.00  0.00    +0.000 N 
ATOM      3  C   UNL     1     -55.503 -43.476 -78.233  0.00  0.00    +0.000 A 
ATOM      4  C   UNL     1     -56.823 -43.903 -78.469  0.00  0.00    +0.000 A 
ATOM      5 BR   UNL     1     -57.421 -44.314 -80.222  0.00  0.00    +0.000 Br
ATOM      6  C   UNL     1     -57.746 -44.017 -77.421  0.00  0.00    +0.000 A 
ATOM      7  C   UNL     1     -57.362 -43.674 -76.119  0.00  0.00    +0.000 A 
ATOM      8  C   UNL     1     -56.059 -43.247 -75.861  0.00  0.00    +0.000 A 
ATOM      9 CL   UNL     1     -55.706 -42.779 -74.237  0.00  0.00    +0.000 Cl
ATOM     10  C   UNL     1     -55.134 -43.171 -76.914  0.00  0.00    +0.000 A 
ATOM     11  C   UNL     1     -53.715 -42.813 -76.724  0.00  0.00    +0.000 A 
ATOM     12  O   UNL     1     -53.118 -43.072 -75.687  0.00  0.00    +0.000 OA
ATOM     13  C   UNL     1     -52.989 -42.185 -77.876  0.00  0.00    +0.000 A 
ATOM     14  H   UNL     1     -54.882 -43.401 -80.200  0.00  0.00    +0.000 HD
ENDROOT
BRANCH   1  15
ATOM     15  S   UNL     1     -52.714 -42.034 -80.666  0.00  0.00    +0.000 S 
ATOM     16  O   UNL     1     -53.677 -40.940 -81.039  0.00  0.00    +0.000 OA
BRANCH  15  17
ATOM     17  C   UNL     1     -52.845 -43.330 -81.933  0.00  0.00    +0.000 C 
BRANCH  17  21
ATOM     18  C   UNL     1     -49.383 -43.083 -85.697  0.00  0.00    +0.000 C 
ATOM     19  C   UNL     1     -50.512 -43.233 -84.760  0.00  0.00    +0.000 A 
ATOM     20  C   UNL     1     -50.674 -43.060 -83.406  0.00  0.00    +0.000 A 
ATOM     21  C   UNL     1     -52.050 -43.286 -83.182  0.00  0.00    +0.000 A 
ATOM     22  N   UNL     1     -52.662 -43.643 -84.325  0.00  0.00    +0.000 NA
ATOM     23  O   UNL     1     -51.696 -43.606 -85.309  0.00  0.00    +0.000 OA
ENDBRANCH  17  21
ENDBRANCH  15  17
ENDBRANCH   1  15
BRANCH  13  24
ATOM     24  C   UNL     1     -52.132 -41.029 -77.486  0.00  0.00    +0.000 C 
ATOM     25  O   UNL     1     -50.918 -41.132 -77.477  0.00  0.00    +0.000 OA
BRANCH  24  26
ATOM     26  C   UNL     1     -52.779 -39.744 -77.159  0.00  0.00    +0.000 C 
ATOM     27  C   UNL     1     -54.202 -39.499 -77.590  0.00  0.00    +0.000 C 
ATOM     28  C   UNL     1     -53.090 -38.728 -78.233  0.00  0.00    +0.000 C 
ENDBRANCH  24  26
ENDBRANCH  13  24
TORSDOF 5
