REMARK VINA RESULT:    -6.678      2.509      4.270
REMARK INTER + INTRA:          -9.550
REMARK INTER:                  -8.605
REMARK INTRA:                  -0.945
REMARK UNBOUND:                -0.920
REMARK  Name = 
REMARK  8 active torsions:
REMARK  status: ('A' for Active; 'I' for Inactive)
REMARK    1  A    between atoms: C_1  and  C_2
REMARK    2  A    between atoms: C_4  and  C_5
REMARK    3  A    between atoms: C_5  and  S_6
REMARK    4  A    between atoms: S_6  and  C_8
REMARK    5  A    between atoms: C_20  and  C_21
REMARK    6  A    between atoms: C_21  and  C_23
REMARK    7  A    between atoms: C_23  and  C_24
REMARK    8  A    between atoms: C_23  and  C_25
REMARK                            x       y       z     vdW  Elec       q    Type
REMARK                         _______ _______ _______ _____ _____    ______ ____
ROOT
ATOM      1  C   UNL     1     -55.685 -42.635 -76.604  0.00  0.00    +0.000 A 
ATOM      2  N   UNL     1     -54.356 -42.967 -76.357  0.00  0.00    +0.000 N 
ATOM      3  C   UNL     1     -53.355 -41.982 -76.256  0.00  0.00    +0.000 A 
ATOM      4  C   UNL     1     -52.127 -42.224 -75.611  0.00  0.00    +0.000 A 
ATOM      5 BR   UNL     1     -51.813 -43.854 -74.693  0.00  0.00    +0.000 Br
ATOM      6  C   UNL     1     -51.120 -41.255 -75.594  0.00  0.00    +0.000 A 
ATOM      7  C   UNL     1     -51.328 -40.027 -76.216  0.00  0.00    +0.000 A 
ATOM      8  C   UNL     1     -52.551 -39.762 -76.859  0.00  0.00    +0.000 A 
ATOM      9 CL   UNL     1     -52.718 -38.180 -77.532  0.00  0.00    +0.000 Cl
ATOM     10  C   UNL     1     -53.564 -40.743 -76.883  0.00  0.00    +0.000 A 
ATOM     11  C   UNL     1     -54.874 -40.573 -77.562  0.00  0.00    +0.000 A 
ATOM     12  O   UNL     1     -54.990 -39.770 -78.483  0.00  0.00    +0.000 OA
ATOM     13  C   UNL     1     -56.050 -41.430 -77.102  0.00  0.00    +0.000 A 
ATOM     14  H   UNL     1     -54.238 -43.794 -75.755  0.00  0.00    +0.000 HD
ENDROOT
BRANCH   1  15
ATOM     15  S   UNL     1     -56.827 -43.923 -75.976  0.00  0.00    +0.000 S 
ATOM     16  O   UNL     1     -57.095 -43.504 -74.556  0.00  0.00    +0.000 OA
BRANCH  15  17
ATOM     17  C   UNL     1     -55.792 -45.425 -75.950  0.00  0.00    +0.000 C 
BRANCH  17  21
ATOM     18  C   UNL     1     -57.270 -48.641 -79.728  0.00  0.00    +0.000 C 
ATOM     19  C   UNL     1     -56.662 -47.723 -78.741  0.00  0.00    +0.000 A 
ATOM     20  C   UNL     1     -57.132 -46.983 -77.680  0.00  0.00    +0.000 A 
ATOM     21  C   UNL     1     -55.982 -46.340 -77.137  0.00  0.00    +0.000 A 
ATOM     22  N   UNL     1     -54.895 -46.669 -77.857  0.00  0.00    +0.000 NA
ATOM     23  O   UNL     1     -55.322 -47.530 -78.849  0.00  0.00    +0.000 OA
ENDBRANCH  17  21
ENDBRANCH  15  17
ENDBRANCH   1  15
BRANCH  13  24
ATOM     24  C   UNL     1     -57.427 -40.816 -77.224  0.00  0.00    +0.000 C 
ATOM     25  O   UNL     1     -57.761 -39.892 -76.482  0.00  0.00    +0.000 OA
BRANCH  24  26
ATOM     26  C   UNL     1     -58.438 -41.379 -78.222  0.00  0.00    +0.000 C 
ATOM     27  C   UNL     1     -59.591 -40.409 -78.469  0.00  0.00    +0.000 C 
ATOM     28  C   UNL     1     -57.778 -41.768 -79.548  0.00  0.00    +0.000 C 
ENDBRANCH  24  26
ENDBRANCH  13  24
TORSDOF 5
