REMARK VINA RESULT:    -5.179      6.033      8.965
REMARK INTER + INTRA:          -7.472
REMARK INTER:                  -6.751
REMARK INTRA:                  -0.721
REMARK UNBOUND:                -1.082
REMARK  Name = 
REMARK  6 active torsions:
REMARK  status: ('A' for Active; 'I' for Inactive)
REMARK    1  A    between atoms: C_1  and  C_2
REMARK    2  A    between atoms: C_2  and  C_4
REMARK    3  A    between atoms: C_5  and  S_6
REMARK    4  A    between atoms: S_6  and  C_8
REMARK    5  A    between atoms: C_8  and  C_9
REMARK    6  A    between atoms: C_11  and  C_12
REMARK                            x       y       z     vdW  Elec       q    Type
REMARK                         _______ _______ _______ _____ _____    ______ ____
ROOT
ATOM      1  C   UNL     1     -56.841 -35.922 -62.673  0.00  0.00    +0.000 A 
ATOM      2  C   UNL     1     -57.349 -37.116 -62.297  0.00  0.00    +0.000 A 
ATOM      3  N   UNL     1     -58.687 -37.325 -62.027  0.00  0.00    +0.000 N 
ATOM      4  C   UNL     1     -59.624 -36.280 -61.973  0.00  0.00    +0.000 A 
ATOM      5  C   UNL     1     -60.969 -36.536 -61.649  0.00  0.00    +0.000 A 
ATOM      6 BR   UNL     1     -61.546 -38.287 -61.186  0.00  0.00    +0.000 Br
ATOM      7  C   UNL     1     -61.914 -35.514 -61.647  0.00  0.00    +0.000 A 
ATOM      8  C   UNL     1     -61.527 -34.221 -61.983  0.00  0.00    +0.000 A 
ATOM      9  C   UNL     1     -60.199 -33.943 -62.332  0.00  0.00    +0.000 A 
ATOM     10 CL   UNL     1     -59.871 -32.289 -62.715  0.00  0.00    +0.000 Cl
ATOM     11  C   UNL     1     -59.243 -34.980 -62.347  0.00  0.00    +0.000 A 
ATOM     12  C   UNL     1     -57.813 -34.769 -62.708  0.00  0.00    +0.000 A 
ATOM     13  O   UNL     1     -57.414 -33.649 -62.994  0.00  0.00    +0.000 OA
ATOM     14  H   UNL     1     -58.893 -38.126 -61.425  0.00  0.00    +0.000 HD
ENDROOT
BRANCH   1  16
ATOM     15  C   UNL     1     -54.440 -35.258 -61.910  0.00  0.00    +0.000 C 
ATOM     16  C   UNL     1     -55.393 -35.672 -63.008  0.00  0.00    +0.000 C 
ATOM     17  O   UNL     1     -54.967 -35.783 -64.159  0.00  0.00    +0.000 OA
ENDBRANCH   1  16
BRANCH   2  18
ATOM     18  S   UNL     1     -56.265 -38.540 -61.948  0.00  0.00    +0.000 S 
ATOM     19  O   UNL     1     -57.042 -39.329 -60.927  0.00  0.00    +0.000 OA
BRANCH  18  20
ATOM     20  C   UNL     1     -56.445 -39.447 -63.527  0.00  0.00    +0.000 C 
BRANCH  20  21
ATOM     21  C   UNL     1     -55.127 -39.857 -64.099  0.00  0.00    +0.000 A 
ATOM     22  C   UNL     1     -54.047 -39.064 -64.567  0.00  0.00    +0.000 A 
ATOM     23  C   UNL     1     -53.103 -39.972 -64.979  0.00  0.00    +0.000 A 
ATOM     24  C   UNL     1     -51.778 -39.868 -65.618  0.00  0.00    +0.000 C 
ATOM     25  O   UNL     1     -53.557 -41.228 -64.731  0.00  0.00    +0.000 OA
ATOM     26  N   UNL     1     -54.821 -41.162 -64.173  0.00  0.00    +0.000 NA
ENDBRANCH  20  21
ENDBRANCH  18  20
ENDBRANCH   2  18
TORSDOF 4
