REMARK VINA RESULT:    -5.088     13.276     16.116
REMARK INTER + INTRA:          -7.628
REMARK INTER:                  -6.525
REMARK INTRA:                  -1.103
REMARK UNBOUND:                -1.054
REMARK  Name = 
REMARK  8 active torsions:
REMARK  status: ('A' for Active; 'I' for Inactive)
REMARK    1  A    between atoms: C_1  and  C_2
REMARK    2  A    between atoms: C_4  and  C_5
REMARK    3  A    between atoms: C_5  and  S_6
REMARK    4  A    between atoms: S_6  and  C_8
REMARK    5  A    between atoms: C_20  and  C_21
REMARK    6  A    between atoms: C_21  and  C_23
REMARK    7  A    between atoms: C_23  and  C_24
REMARK    8  A    between atoms: C_23  and  C_25
REMARK                            x       y       z     vdW  Elec       q    Type
REMARK                         _______ _______ _______ _____ _____    ______ ____
ROOT
ATOM      1  C   UNL     1     -57.440 -36.950 -62.088  0.00  0.00    +0.000 A 
ATOM      2  N   UNL     1     -56.269 -37.563 -62.524  0.00  0.00    +0.000 N 
ATOM      3  C   UNL     1     -56.293 -38.767 -63.254  0.00  0.00    +0.000 A 
ATOM      4  C   UNL     1     -55.208 -39.184 -64.049  0.00  0.00    +0.000 A 
ATOM      5 BR   UNL     1     -53.704 -38.058 -64.313  0.00  0.00    +0.000 Br
ATOM      6  C   UNL     1     -55.227 -40.420 -64.700  0.00  0.00    +0.000 A 
ATOM      7  C   UNL     1     -56.332 -41.256 -64.571  0.00  0.00    +0.000 A 
ATOM      8  C   UNL     1     -57.430 -40.856 -63.787  0.00  0.00    +0.000 A 
ATOM      9 CL   UNL     1     -58.770 -41.944 -63.760  0.00  0.00    +0.000 Cl
ATOM     10  C   UNL     1     -57.408 -39.612 -63.124  0.00  0.00    +0.000 A 
ATOM     11  C   UNL     1     -58.500 -39.113 -62.249  0.00  0.00    +0.000 A 
ATOM     12  O   UNL     1     -59.269 -39.905 -61.714  0.00  0.00    +0.000 OA
ATOM     13  C   UNL     1     -58.621 -37.609 -62.020  0.00  0.00    +0.000 A 
ATOM     14  H   UNL     1     -55.517 -36.903 -62.767  0.00  0.00    +0.000 HD
ENDROOT
BRANCH   1  15
ATOM     15  S   UNL     1     -57.206 -35.148 -61.850  0.00  0.00    +0.000 S 
ATOM     16  O   UNL     1     -56.548 -34.699 -63.126  0.00  0.00    +0.000 OA
BRANCH  15  17
ATOM     17  C   UNL     1     -55.977 -35.060 -60.504  0.00  0.00    +0.000 C 
BRANCH  17  21
ATOM     18  C   UNL     1     -51.450 -33.019 -61.970  0.00  0.00    +0.000 C 
ATOM     19  C   UNL     1     -52.652 -33.786 -61.577  0.00  0.00    +0.000 A 
ATOM     20  C   UNL     1     -53.891 -33.465 -61.069  0.00  0.00    +0.000 A 
ATOM     21  C   UNL     1     -54.578 -34.708 -60.953  0.00  0.00    +0.000 A 
ATOM     22  N   UNL     1     -53.776 -35.710 -61.352  0.00  0.00    +0.000 NA
ATOM     23  O   UNL     1     -52.583 -35.132 -61.741  0.00  0.00    +0.000 OA
ENDBRANCH  17  21
ENDBRANCH  15  17
ENDBRANCH   1  15
BRANCH  13  24
ATOM     24  C   UNL     1     -60.014 -37.067 -61.792  0.00  0.00    +0.000 C 
ATOM     25  O   UNL     1     -60.603 -36.474 -62.695  0.00  0.00    +0.000 OA
BRANCH  24  26
ATOM     26  C   UNL     1     -60.677 -37.191 -60.420  0.00  0.00    +0.000 C 
ATOM     27  C   UNL     1     -59.960 -36.350 -59.366  0.00  0.00    +0.000 C 
ATOM     28  C   UNL     1     -62.164 -36.828 -60.467  0.00  0.00    +0.000 C 
ENDBRANCH  24  26
ENDBRANCH  13  24
TORSDOF 5
