REMARK VINA RESULT:    -5.918      3.620      5.609
REMARK INTER + INTRA:          -8.701
REMARK INTER:                  -7.910
REMARK INTRA:                  -0.791
REMARK UNBOUND:                -1.054
REMARK  Name = 
REMARK  8 active torsions:
REMARK  status: ('A' for Active; 'I' for Inactive)
REMARK    1  A    between atoms: C_1  and  C_2
REMARK    2  A    between atoms: C_4  and  C_5
REMARK    3  A    between atoms: C_5  and  S_6
REMARK    4  A    between atoms: S_6  and  C_8
REMARK    5  A    between atoms: C_20  and  C_21
REMARK    6  A    between atoms: C_21  and  C_23
REMARK    7  A    between atoms: C_23  and  C_24
REMARK    8  A    between atoms: C_23  and  C_25
REMARK                            x       y       z     vdW  Elec       q    Type
REMARK                         _______ _______ _______ _____ _____    ______ ____
ROOT
ATOM      1  C   UNL     1     -55.225 -41.967 -77.787  0.00  0.00    +0.000 A 
ATOM      2  N   UNL     1     -56.455 -42.162 -78.408  0.00  0.00    +0.000 N 
ATOM      3  C   UNL     1     -56.594 -42.095 -79.808  0.00  0.00    +0.000 A 
ATOM      4  C   UNL     1     -57.682 -42.682 -80.482  0.00  0.00    +0.000 A 
ATOM      5 BR   UNL     1     -58.948 -43.743 -79.551  0.00  0.00    +0.000 Br
ATOM      6  C   UNL     1     -57.836 -42.533 -81.863  0.00  0.00    +0.000 A 
ATOM      7  C   UNL     1     -56.903 -41.801 -82.592  0.00  0.00    +0.000 A 
ATOM      8  C   UNL     1     -55.805 -41.213 -81.939  0.00  0.00    +0.000 A 
ATOM      9 CL   UNL     1     -54.678 -40.391 -82.956  0.00  0.00    +0.000 Cl
ATOM     10  C   UNL     1     -55.653 -41.357 -80.544  0.00  0.00    +0.000 A 
ATOM     11  C   UNL     1     -54.548 -40.749 -79.758  0.00  0.00    +0.000 A 
ATOM     12  O   UNL     1     -53.963 -39.759 -80.184  0.00  0.00    +0.000 OA
ATOM     13  C   UNL     1     -54.183 -41.371 -78.413  0.00  0.00    +0.000 A 
ATOM     14  H   UNL     1     -57.064 -42.838 -77.926  0.00  0.00    +0.000 HD
ENDROOT
BRANCH   1  15
ATOM     15  S   UNL     1     -55.158 -42.798 -76.154  0.00  0.00    +0.000 S 
ATOM     16  O   UNL     1     -55.084 -44.261 -76.499  0.00  0.00    +0.000 OA
BRANCH  15  17
ATOM     17  C   UNL     1     -56.802 -42.454 -75.441  0.00  0.00    +0.000 C 
BRANCH  17  21
ATOM     18  C   UNL     1     -56.271 -41.027 -70.494  0.00  0.00    +0.000 C 
ATOM     19  C   UNL     1     -56.521 -41.254 -71.934  0.00  0.00    +0.000 A 
ATOM     20  C   UNL     1     -56.139 -42.207 -72.850  0.00  0.00    +0.000 A 
ATOM     21  C   UNL     1     -56.773 -41.825 -74.068  0.00  0.00    +0.000 A 
ATOM     22  N   UNL     1     -57.473 -40.693 -73.881  0.00  0.00    +0.000 NA
ATOM     23  O   UNL     1     -57.316 -40.345 -72.553  0.00  0.00    +0.000 OA
ENDBRANCH  17  21
ENDBRANCH  15  17
ENDBRANCH   1  15
BRANCH  13  24
ATOM     24  C   UNL     1     -52.734 -41.274 -77.991  0.00  0.00    +0.000 C 
ATOM     25  O   UNL     1     -51.873 -41.926 -78.579  0.00  0.00    +0.000 OA
BRANCH  24  26
ATOM     26  C   UNL     1     -52.335 -40.417 -76.788  0.00  0.00    +0.000 C 
ATOM     27  C   UNL     1     -50.912 -40.718 -76.326  0.00  0.00    +0.000 C 
ATOM     28  C   UNL     1     -52.496 -38.921 -77.073  0.00  0.00    +0.000 C 
ENDBRANCH  24  26
ENDBRANCH  13  24
TORSDOF 5
