REMARK VINA RESULT:    -6.000      3.912      6.815
REMARK INTER + INTRA:          -8.162
REMARK INTER:                  -7.140
REMARK INTRA:                  -1.022
REMARK UNBOUND:                -0.760
REMARK  Name = 
REMARK  6 active torsions:
REMARK  status: ('A' for Active; 'I' for Inactive)
REMARK    1  A    between atoms: C_1  and  C_2
REMARK    2  A    between atoms: C_2  and  C_4
REMARK    3  A    between atoms: C_5  and  S_6
REMARK    4  A    between atoms: S_6  and  C_8
REMARK    5  A    between atoms: C_8  and  C_9
REMARK    6  A    between atoms: C_11  and  C_12
REMARK                            x       y       z     vdW  Elec       q    Type
REMARK                         _______ _______ _______ _____ _____    ______ ____
ROOT
ATOM      1  C   UNL     1     -55.172 -40.497 -63.748  0.00  0.00    +0.000 A 
ATOM      2  C   UNL     1     -55.928 -41.114 -62.808  0.00  0.00    +0.000 A 
ATOM      3  N   UNL     1     -56.801 -40.440 -61.979  0.00  0.00    +0.000 N 
ATOM      4  C   UNL     1     -56.927 -39.043 -61.972  0.00  0.00    +0.000 A 
ATOM      5  C   UNL     1     -57.883 -38.410 -61.154  0.00  0.00    +0.000 A 
ATOM      6 BR   UNL     1     -59.004 -39.419 -59.999  0.00  0.00    +0.000 Br
ATOM      7  C   UNL     1     -58.047 -37.027 -61.180  0.00  0.00    +0.000 A 
ATOM      8  C   UNL     1     -57.251 -36.255 -62.022  0.00  0.00    +0.000 A 
ATOM      9  C   UNL     1     -56.310 -36.865 -62.863  0.00  0.00    +0.000 A 
ATOM     10 CL   UNL     1     -55.394 -35.776 -63.845  0.00  0.00    +0.000 Cl
ATOM     11  C   UNL     1     -56.169 -38.265 -62.864  0.00  0.00    +0.000 A 
ATOM     12  C   UNL     1     -55.233 -38.991 -63.763  0.00  0.00    +0.000 A 
ATOM     13  O   UNL     1     -54.476 -38.369 -64.497  0.00  0.00    +0.000 OA
ATOM     14  H   UNL     1     -57.057 -40.918 -61.115  0.00  0.00    +0.000 HD
ENDROOT
BRANCH   1  16
ATOM     15  C   UNL     1     -52.836 -41.457 -64.332  0.00  0.00    +0.000 C 
ATOM     16  C   UNL     1     -54.273 -41.200 -64.727  0.00  0.00    +0.000 C 
ATOM     17  O   UNL     1     -54.667 -41.537 -65.846  0.00  0.00    +0.000 OA
ENDBRANCH   1  16
BRANCH   2  18
ATOM     18  S   UNL     1     -55.743 -42.897 -62.470  0.00  0.00    +0.000 S 
ATOM     19  O   UNL     1     -55.517 -42.951 -60.984  0.00  0.00    +0.000 OA
BRANCH  18  20
ATOM     20  C   UNL     1     -57.474 -43.423 -62.736  0.00  0.00    +0.000 C 
BRANCH  20  21
ATOM     21  C   UNL     1     -58.008 -42.937 -64.041  0.00  0.00    +0.000 A 
ATOM     22  C   UNL     1     -57.727 -43.406 -65.349  0.00  0.00    +0.000 A 
ATOM     23  C   UNL     1     -58.554 -42.672 -66.165  0.00  0.00    +0.000 A 
ATOM     24  C   UNL     1     -58.807 -42.637 -67.617  0.00  0.00    +0.000 C 
ATOM     25  O   UNL     1     -59.281 -41.814 -65.401  0.00  0.00    +0.000 OA
ATOM     26  N   UNL     1     -58.946 -41.980 -64.069  0.00  0.00    +0.000 NA
ENDBRANCH  20  21
ENDBRANCH  18  20
ENDBRANCH   2  18
TORSDOF 4
