REMARK VINA RESULT:    -5.581     11.634     14.442
REMARK INTER + INTRA:          -7.857
REMARK INTER:                  -6.861
REMARK INTRA:                  -0.996
REMARK UNBOUND:                -0.971
REMARK  Name = 
REMARK  6 active torsions:
REMARK  status: ('A' for Active; 'I' for Inactive)
REMARK    1  A    between atoms: C_1  and  C_2
REMARK    2  A    between atoms: C_2  and  C_4
REMARK    3  A    between atoms: C_5  and  S_6
REMARK    4  A    between atoms: S_6  and  C_8
REMARK    5  A    between atoms: C_8  and  C_9
REMARK    6  A    between atoms: C_11  and  C_12
REMARK                            x       y       z     vdW  Elec       q    Type
REMARK                         _______ _______ _______ _____ _____    ______ ____
ROOT
ATOM      1  C   UNL     1     -58.932 -38.302 -61.585  0.00  0.00    +0.000 A 
ATOM      2  C   UNL     1     -58.127 -39.320 -61.971  0.00  0.00    +0.000 A 
ATOM      3  N   UNL     1     -56.868 -39.130 -62.513  0.00  0.00    +0.000 N 
ATOM      4  C   UNL     1     -56.398 -37.863 -62.905  0.00  0.00    +0.000 A 
ATOM      5  C   UNL     1     -55.156 -37.720 -63.551  0.00  0.00    +0.000 A 
ATOM      6 BR   UNL     1     -54.098 -39.239 -63.979  0.00  0.00    +0.000 Br
ATOM      7  C   UNL     1     -54.668 -36.464 -63.904  0.00  0.00    +0.000 A 
ATOM      8  C   UNL     1     -55.416 -35.329 -63.610  0.00  0.00    +0.000 A 
ATOM      9  C   UNL     1     -56.642 -35.441 -62.943  0.00  0.00    +0.000 A 
ATOM     10 CL   UNL     1     -57.470 -33.946 -62.675  0.00  0.00    +0.000 Cl
ATOM     11  C   UNL     1     -57.126 -36.710 -62.566  0.00  0.00    +0.000 A 
ATOM     12  C   UNL     1     -58.400 -36.912 -61.822  0.00  0.00    +0.000 A 
ATOM     13  O   UNL     1     -59.025 -35.938 -61.424  0.00  0.00    +0.000 OA
ATOM     14  H   UNL     1     -56.524 -39.907 -63.082  0.00  0.00    +0.000 HD
ENDROOT
BRANCH   1  16
ATOM     15  C   UNL     1     -61.525 -38.409 -61.868  0.00  0.00    +0.000 C 
ATOM     16  C   UNL     1     -60.301 -38.478 -60.978  0.00  0.00    +0.000 C 
ATOM     17  O   UNL     1     -60.455 -38.672 -59.770  0.00  0.00    +0.000 OA
ENDBRANCH   1  16
BRANCH   2  18
ATOM     18  S   UNL     1     -58.706 -41.059 -61.973  0.00  0.00    +0.000 S 
ATOM     19  O   UNL     1     -59.631 -41.110 -63.160  0.00  0.00    +0.000 OA
BRANCH  18  20
ATOM     20  C   UNL     1     -57.163 -41.884 -62.502  0.00  0.00    +0.000 C 
BRANCH  20  21
ATOM     21  C   UNL     1     -57.176 -42.246 -63.955  0.00  0.00    +0.000 A 
ATOM     22  C   UNL     1     -57.580 -43.453 -64.583  0.00  0.00    +0.000 A 
ATOM     23  C   UNL     1     -57.503 -43.191 -65.929  0.00  0.00    +0.000 A 
ATOM     24  C   UNL     1     -57.797 -43.953 -67.159  0.00  0.00    +0.000 C 
ATOM     25  O   UNL     1     -57.063 -41.913 -66.102  0.00  0.00    +0.000 OA
ATOM     26  N   UNL     1     -56.865 -41.317 -64.870  0.00  0.00    +0.000 NA
ENDBRANCH  20  21
ENDBRANCH  18  20
ENDBRANCH   2  18
TORSDOF 4
