REMARK VINA RESULT:    -5.120      3.069      3.797
REMARK INTER + INTRA:          -7.288
REMARK INTER:                  -6.492
REMARK INTRA:                  -0.796
REMARK UNBOUND:                -0.971
REMARK  Name = 
REMARK  6 active torsions:
REMARK  status: ('A' for Active; 'I' for Inactive)
REMARK    1  A    between atoms: C_1  and  C_2
REMARK    2  A    between atoms: C_2  and  C_4
REMARK    3  A    between atoms: C_5  and  S_6
REMARK    4  A    between atoms: S_6  and  C_8
REMARK    5  A    between atoms: C_8  and  C_9
REMARK    6  A    between atoms: C_11  and  C_12
REMARK                            x       y       z     vdW  Elec       q    Type
REMARK                         _______ _______ _______ _____ _____    ______ ____
ROOT
ATOM      1  C   UNL     1     -55.704 -42.079 -63.027  0.00  0.00    +0.000 A 
ATOM      2  C   UNL     1     -56.288 -41.140 -62.249  0.00  0.00    +0.000 A 
ATOM      3  N   UNL     1     -56.210 -41.142 -60.870  0.00  0.00    +0.000 N 
ATOM      4  C   UNL     1     -55.610 -42.182 -60.139  0.00  0.00    +0.000 A 
ATOM      5  C   UNL     1     -55.534 -42.123 -58.734  0.00  0.00    +0.000 A 
ATOM      6 BR   UNL     1     -56.293 -40.670 -57.774  0.00  0.00    +0.000 Br
ATOM      7  C   UNL     1     -54.897 -43.125 -58.007  0.00  0.00    +0.000 A 
ATOM      8  C   UNL     1     -54.322 -44.200 -58.680  0.00  0.00    +0.000 A 
ATOM      9  C   UNL     1     -54.361 -44.268 -60.078  0.00  0.00    +0.000 A 
ATOM     10 CL   UNL     1     -53.608 -45.664 -60.766  0.00  0.00    +0.000 Cl
ATOM     11  C   UNL     1     -54.983 -43.242 -60.816  0.00  0.00    +0.000 A 
ATOM     12  C   UNL     1     -55.044 -43.224 -62.305  0.00  0.00    +0.000 A 
ATOM     13  O   UNL     1     -54.592 -44.163 -62.949  0.00  0.00    +0.000 OA
ATOM     14  H   UNL     1     -56.945 -40.628 -60.384  0.00  0.00    +0.000 HD
ENDROOT
BRANCH   1  16
ATOM     15  C   UNL     1     -56.845 -42.750 -65.262  0.00  0.00    +0.000 C 
ATOM     16  C   UNL     1     -55.710 -42.066 -64.533  0.00  0.00    +0.000 C 
ATOM     17  O   UNL     1     -54.804 -41.544 -65.182  0.00  0.00    +0.000 OA
ENDBRANCH   1  16
BRANCH   2  18
ATOM     18  S   UNL     1     -57.378 -39.862 -62.961  0.00  0.00    +0.000 S 
ATOM     19  O   UNL     1     -57.968 -39.195 -61.748  0.00  0.00    +0.000 OA
BRANCH  18  20
ATOM     20  C   UNL     1     -56.109 -38.712 -63.601  0.00  0.00    +0.000 C 
BRANCH  20  21
ATOM     21  C   UNL     1     -55.750 -37.670 -62.595  0.00  0.00    +0.000 A 
ATOM     22  C   UNL     1     -54.832 -37.746 -61.514  0.00  0.00    +0.000 A 
ATOM     23  C   UNL     1     -54.844 -36.490 -60.960  0.00  0.00    +0.000 A 
ATOM     24  C   UNL     1     -54.148 -35.853 -59.826  0.00  0.00    +0.000 C 
ATOM     25  O   UNL     1     -55.704 -35.705 -61.660  0.00  0.00    +0.000 OA
ATOM     26  N   UNL     1     -56.270 -36.439 -62.689  0.00  0.00    +0.000 NA
ENDBRANCH  20  21
ENDBRANCH  18  20
ENDBRANCH   2  18
TORSDOF 4
