MODEL 1
REMARK VINA RESULT:    -6.833      0.000      0.000
REMARK INTER + INTRA:          -9.434
REMARK INTER:                  -8.431
REMARK INTRA:                  -1.003
REMARK UNBOUND:                -1.003
REMARK  Name = 
REMARK  6 active torsions:
REMARK  status: ('A' for Active; 'I' for Inactive)
REMARK    1  A    between atoms: C_1  and  C_2
REMARK    2  A    between atoms: C_2  and  C_4
REMARK    3  A    between atoms: C_5  and  S_6
REMARK    4  A    between atoms: S_6  and  C_8
REMARK    5  A    between atoms: C_8  and  C_9
REMARK    6  A    between atoms: C_11  and  C_12
REMARK                            x       y       z     vdW  Elec       q    Type
REMARK                         _______ _______ _______ _____ _____    ______ ____
ROOT
ATOM      1  C   UNL     1     -55.998 -42.495 -62.800  0.00  0.00    +0.000 A 
ATOM      2  C   UNL     1     -55.712 -41.349 -63.459  0.00  0.00    +0.000 A 
ATOM      3  N   UNL     1     -54.498 -41.116 -64.076  0.00  0.00    +0.000 N 
ATOM      4  C   UNL     1     -53.392 -41.974 -63.933  0.00  0.00    +0.000 A 
ATOM      5  C   UNL     1     -52.150 -41.661 -64.513  0.00  0.00    +0.000 A 
ATOM      6 BR   UNL     1     -51.894 -40.023 -65.442  0.00  0.00    +0.000 Br
ATOM      7  C   UNL     1     -51.069 -42.535 -64.417  0.00  0.00    +0.000 A 
ATOM      8  C   UNL     1     -51.219 -43.741 -63.746  0.00  0.00    +0.000 A 
ATOM      9  C   UNL     1     -52.453 -44.091 -63.178  0.00  0.00    +0.000 A 
ATOM     10 CL   UNL     1     -52.477 -45.619 -62.368  0.00  0.00    +0.000 Cl
ATOM     11  C   UNL     1     -53.549 -43.210 -63.282  0.00  0.00    +0.000 A 
ATOM     12  C   UNL     1     -54.883 -43.505 -62.700  0.00  0.00    +0.000 A 
ATOM     13  O   UNL     1     -55.069 -44.551 -62.102  0.00  0.00    +0.000 OA
ATOM     14  H   UNL     1     -54.264 -40.134 -64.228  0.00  0.00    +0.000 HD
ENDROOT
BRANCH   1  16
ATOM     15  C   UNL     1     -58.417 -43.473 -62.926  0.00  0.00    +0.000 C 
ATOM     16  C   UNL     1     -57.324 -42.795 -62.132  0.00  0.00    +0.000 C 
ATOM     17  O   UNL     1     -57.538 -42.494 -60.957  0.00  0.00    +0.000 OA
ENDBRANCH   1  16
BRANCH   2  18
ATOM     18  S   UNL     1     -56.853 -39.927 -63.436  0.00  0.00    +0.000 S 
ATOM     19  O   UNL     1     -56.658 -39.343 -62.062  0.00  0.00    +0.000 OA
BRANCH  18  20
ATOM     20  C   UNL     1     -55.976 -38.810 -64.588  0.00  0.00    +0.000 C 
BRANCH  20  21
ATOM     21  C   UNL     1     -55.305 -37.671 -63.887  0.00  0.00    +0.000 A 
ATOM     22  C   UNL     1     -55.781 -36.366 -63.595  0.00  0.00    +0.000 A 
ATOM     23  C   UNL     1     -54.746 -35.758 -62.924  0.00  0.00    +0.000 A 
ATOM     24  C   UNL     1     -54.519 -34.410 -62.371  0.00  0.00    +0.000 C 
ATOM     25  O   UNL     1     -53.730 -36.649 -62.784  0.00  0.00    +0.000 OA
ATOM     26  N   UNL     1     -54.077 -37.849 -63.378  0.00  0.00    +0.000 NA
ENDBRANCH  20  21
ENDBRANCH  18  20
ENDBRANCH   2  18
TORSDOF 4
ENDMDL
MODEL 2
REMARK VINA RESULT:    -6.751      2.113      3.765
REMARK INTER + INTRA:          -9.332
REMARK INTER:                  -8.436
REMARK INTRA:                  -0.896
REMARK UNBOUND:                -1.003
REMARK  Name = 
REMARK  6 active torsions:
REMARK  status: ('A' for Active; 'I' for Inactive)
REMARK    1  A    between atoms: C_1  and  C_2
REMARK    2  A    between atoms: C_2  and  C_4
REMARK    3  A    between atoms: C_5  and  S_6
REMARK    4  A    between atoms: S_6  and  C_8
REMARK    5  A    between atoms: C_8  and  C_9
REMARK    6  A    between atoms: C_11  and  C_12
REMARK                            x       y       z     vdW  Elec       q    Type
REMARK                         _______ _______ _______ _____ _____    ______ ____
ROOT
ATOM      1  C   UNL     1     -55.604 -42.714 -62.543  0.00  0.00    +0.000 A 
ATOM      2  C   UNL     1     -55.333 -41.548 -63.172  0.00  0.00    +0.000 A 
ATOM      3  N   UNL     1     -54.158 -41.318 -63.862  0.00  0.00    +0.000 N 
ATOM      4  C   UNL     1     -53.068 -42.208 -63.831  0.00  0.00    +0.000 A 
ATOM      5  C   UNL     1     -51.861 -41.900 -64.483  0.00  0.00    +0.000 A 
ATOM      6 BR   UNL     1     -51.625 -40.230 -65.359  0.00  0.00    +0.000 Br
ATOM      7  C   UNL     1     -50.800 -42.804 -64.499  0.00  0.00    +0.000 A 
ATOM      8  C   UNL     1     -50.937 -44.034 -63.870  0.00  0.00    +0.000 A 
ATOM      9  C   UNL     1     -52.138 -44.378 -63.232  0.00  0.00    +0.000 A 
ATOM     10 CL   UNL     1     -52.148 -45.939 -62.487  0.00  0.00    +0.000 Cl
ATOM     11  C   UNL     1     -53.214 -43.467 -63.223  0.00  0.00    +0.000 A 
ATOM     12  C   UNL     1     -54.513 -43.754 -62.562  0.00  0.00    +0.000 A 
ATOM     13  O   UNL     1     -54.685 -44.821 -61.997  0.00  0.00    +0.000 OA
ATOM     14  H   UNL     1     -53.908 -40.336 -63.989  0.00  0.00    +0.000 HD
ENDROOT
BRANCH   1  16
ATOM     15  C   UNL     1     -58.023 -43.699 -62.521  0.00  0.00    +0.000 C 
ATOM     16  C   UNL     1     -56.889 -43.011 -61.798  0.00  0.00    +0.000 C 
ATOM     17  O   UNL     1     -57.036 -42.698 -60.615  0.00  0.00    +0.000 OA
ENDBRANCH   1  16
BRANCH   2  18
ATOM     18  S   UNL     1     -56.430 -40.101 -63.010  0.00  0.00    +0.000 S 
ATOM     19  O   UNL     1     -55.524 -39.033 -62.458  0.00  0.00    +0.000 OA
BRANCH  18  20
ATOM     20  C   UNL     1     -56.668 -39.696 -64.778  0.00  0.00    +0.000 C 
BRANCH  20  21
ATOM     21  C   UNL     1     -57.028 -40.893 -65.599  0.00  0.00    +0.000 A 
ATOM     22  C   UNL     1     -56.293 -41.569 -66.608  0.00  0.00    +0.000 A 
ATOM     23  C   UNL     1     -57.108 -42.604 -67.002  0.00  0.00    +0.000 A 
ATOM     24  C   UNL     1     -57.017 -43.664 -68.022  0.00  0.00    +0.000 C 
ATOM     25  O   UNL     1     -58.241 -42.581 -66.252  0.00  0.00    +0.000 OA
ATOM     26  N   UNL     1     -58.193 -41.517 -65.368  0.00  0.00    +0.000 NA
ENDBRANCH  20  21
ENDBRANCH  18  20
ENDBRANCH   2  18
TORSDOF 4
ENDMDL
MODEL 3
REMARK VINA RESULT:    -6.458     13.874     14.759
REMARK INTER + INTRA:          -8.970
REMARK INTER:                  -8.318
REMARK INTRA:                  -0.652
REMARK UNBOUND:                -1.003
REMARK  Name = 
REMARK  6 active torsions:
REMARK  status: ('A' for Active; 'I' for Inactive)
REMARK    1  A    between atoms: C_1  and  C_2
REMARK    2  A    between atoms: C_2  and  C_4
REMARK    3  A    between atoms: C_5  and  S_6
REMARK    4  A    between atoms: S_6  and  C_8
REMARK    5  A    between atoms: C_8  and  C_9
REMARK    6  A    between atoms: C_11  and  C_12
REMARK                            x       y       z     vdW  Elec       q    Type
REMARK                         _______ _______ _______ _____ _____    ______ ____
ROOT
ATOM      1  C   UNL     1     -56.060 -42.648 -77.590  0.00  0.00    +0.000 A 
ATOM      2  C   UNL     1     -55.192 -43.265 -76.758  0.00  0.00    +0.000 A 
ATOM      3  N   UNL     1     -55.168 -44.634 -76.570  0.00  0.00    +0.000 N 
ATOM      4  C   UNL     1     -56.152 -45.493 -77.094  0.00  0.00    +0.000 A 
ATOM      5  C   UNL     1     -56.136 -46.870 -76.815  0.00  0.00    +0.000 A 
ATOM      6 BR   UNL     1     -54.833 -47.613 -75.647  0.00  0.00    +0.000 Br
ATOM      7  C   UNL     1     -57.078 -47.731 -77.376  0.00  0.00    +0.000 A 
ATOM      8  C   UNL     1     -58.044 -47.223 -78.234  0.00  0.00    +0.000 A 
ATOM      9  C   UNL     1     -58.070 -45.857 -78.551  0.00  0.00    +0.000 A 
ATOM     10 CL   UNL     1     -59.339 -45.380 -79.624  0.00  0.00    +0.000 Cl
ATOM     11  C   UNL     1     -57.112 -44.988 -77.989  0.00  0.00    +0.000 A 
ATOM     12  C   UNL     1     -57.079 -43.530 -78.267  0.00  0.00    +0.000 A 
ATOM     13  O   UNL     1     -57.904 -43.035 -79.015  0.00  0.00    +0.000 OA
ATOM     14  H   UNL     1     -54.740 -44.950 -75.699  0.00  0.00    +0.000 HD
ENDROOT
BRANCH   1  16
ATOM     15  C   UNL     1     -57.028 -40.291 -77.017  0.00  0.00    +0.000 C 
ATOM     16  C   UNL     1     -56.100 -41.154 -77.840  0.00  0.00    +0.000 C 
ATOM     17  O   UNL     1     -55.399 -40.626 -78.703  0.00  0.00    +0.000 OA
ENDBRANCH   1  16
BRANCH   2  18
ATOM     18  S   UNL     1     -54.082 -42.316 -75.665  0.00  0.00    +0.000 S 
ATOM     19  O   UNL     1     -53.734 -43.299 -74.579  0.00  0.00    +0.000 OA
BRANCH  18  20
ATOM     20  C   UNL     1     -52.607 -42.209 -76.741  0.00  0.00    +0.000 C 
BRANCH  20  21
ATOM     21  C   UNL     1     -51.546 -41.320 -76.176  0.00  0.00    +0.000 A 
ATOM     22  C   UNL     1     -51.365 -39.917 -76.294  0.00  0.00    +0.000 A 
ATOM     23  C   UNL     1     -50.236 -39.646 -75.558  0.00  0.00    +0.000 A 
ATOM     24  C   UNL     1     -49.447 -38.432 -75.279  0.00  0.00    +0.000 C 
ATOM     25  O   UNL     1     -49.789 -40.801 -74.998  0.00  0.00    +0.000 OA
ATOM     26  N   UNL     1     -50.608 -41.849 -75.375  0.00  0.00    +0.000 NA
ENDBRANCH  20  21
ENDBRANCH  18  20
ENDBRANCH   2  18
TORSDOF 4
ENDMDL
MODEL 4
REMARK VINA RESULT:    -6.350     15.109     16.039
REMARK INTER + INTRA:          -8.837
REMARK INTER:                  -8.053
REMARK INTRA:                  -0.784
REMARK UNBOUND:                -1.003
REMARK  Name = 
REMARK  6 active torsions:
REMARK  status: ('A' for Active; 'I' for Inactive)
REMARK    1  A    between atoms: C_1  and  C_2
REMARK    2  A    between atoms: C_2  and  C_4
REMARK    3  A    between atoms: C_5  and  S_6
REMARK    4  A    between atoms: S_6  and  C_8
REMARK    5  A    between atoms: C_8  and  C_9
REMARK    6  A    between atoms: C_11  and  C_12
REMARK                            x       y       z     vdW  Elec       q    Type
REMARK                         _______ _______ _______ _____ _____    ______ ____
ROOT
ATOM      1  C   UNL     1     -55.963 -41.718 -78.389  0.00  0.00    +0.000 A 
ATOM      2  C   UNL     1     -54.635 -41.834 -78.164  0.00  0.00    +0.000 A 
ATOM      3  N   UNL     1     -53.710 -42.012 -79.175  0.00  0.00    +0.000 N 
ATOM      4  C   UNL     1     -54.078 -42.258 -80.511  0.00  0.00    +0.000 A 
ATOM      5  C   UNL     1     -53.108 -42.512 -81.496  0.00  0.00    +0.000 A 
ATOM      6 BR   UNL     1     -51.264 -42.617 -81.044  0.00  0.00    +0.000 Br
ATOM      7  C   UNL     1     -53.466 -42.702 -82.830  0.00  0.00    +0.000 A 
ATOM      8  C   UNL     1     -54.803 -42.632 -83.196  0.00  0.00    +0.000 A 
ATOM      9  C   UNL     1     -55.792 -42.356 -82.239  0.00  0.00    +0.000 A 
ATOM     10 CL   UNL     1     -57.408 -42.312 -82.851  0.00  0.00    +0.000 Cl
ATOM     11  C   UNL     1     -55.427 -42.155 -80.892  0.00  0.00    +0.000 A 
ATOM     12  C   UNL     1     -56.414 -41.869 -79.820  0.00  0.00    +0.000 A 
ATOM     13  O   UNL     1     -57.601 -41.794 -80.090  0.00  0.00    +0.000 OA
ATOM     14  H   UNL     1     -52.822 -42.426 -78.890  0.00  0.00    +0.000 HD
ENDROOT
BRANCH   1  16
ATOM     15  C   UNL     1     -57.372 -40.089 -76.911  0.00  0.00    +0.000 C 
ATOM     16  C   UNL     1     -57.003 -41.499 -77.310  0.00  0.00    +0.000 C 
ATOM     17  O   UNL     1     -57.553 -42.444 -76.743  0.00  0.00    +0.000 OA
ENDBRANCH   1  16
BRANCH   2  18
ATOM     18  S   UNL     1     -53.962 -41.946 -76.473  0.00  0.00    +0.000 S 
ATOM     19  O   UNL     1     -54.341 -43.336 -76.036  0.00  0.00    +0.000 OA
BRANCH  18  20
ATOM     20  C   UNL     1     -52.175 -42.007 -76.856  0.00  0.00    +0.000 C 
BRANCH  20  21
ATOM     21  C   UNL     1     -51.437 -40.807 -76.354  0.00  0.00    +0.000 A 
ATOM     22  C   UNL     1     -50.192 -40.711 -75.678  0.00  0.00    +0.000 A 
ATOM     23  C   UNL     1     -50.006 -39.364 -75.476  0.00  0.00    +0.000 A 
ATOM     24  C   UNL     1     -48.975 -38.549 -74.808  0.00  0.00    +0.000 C 
ATOM     25  O   UNL     1     -51.047 -38.688 -76.031  0.00  0.00    +0.000 OA
ATOM     26  N   UNL     1     -51.941 -39.585 -76.588  0.00  0.00    +0.000 NA
ENDBRANCH  20  21
ENDBRANCH  18  20
ENDBRANCH   2  18
TORSDOF 4
ENDMDL
MODEL 5
REMARK VINA RESULT:    -6.164     14.481     15.529
REMARK INTER + INTRA:          -8.608
REMARK INTER:                  -7.862
REMARK INTRA:                  -0.747
REMARK UNBOUND:                -1.003
REMARK  Name = 
REMARK  6 active torsions:
REMARK  status: ('A' for Active; 'I' for Inactive)
REMARK    1  A    between atoms: C_1  and  C_2
REMARK    2  A    between atoms: C_2  and  C_4
REMARK    3  A    between atoms: C_5  and  S_6
REMARK    4  A    between atoms: S_6  and  C_8
REMARK    5  A    between atoms: C_8  and  C_9
REMARK    6  A    between atoms: C_11  and  C_12
REMARK                            x       y       z     vdW  Elec       q    Type
REMARK                         _______ _______ _______ _____ _____    ______ ____
ROOT
ATOM      1  C   UNL     1     -53.372 -41.436 -78.027  0.00  0.00    +0.000 A 
ATOM      2  C   UNL     1     -54.700 -41.265 -78.220  0.00  0.00    +0.000 A 
ATOM      3  N   UNL     1     -55.326 -41.508 -79.427  0.00  0.00    +0.000 N 
ATOM      4  C   UNL     1     -54.618 -41.791 -80.610  0.00  0.00    +0.000 A 
ATOM      5  C   UNL     1     -55.288 -41.954 -81.835  0.00  0.00    +0.000 A 
ATOM      6 BR   UNL     1     -57.170 -41.715 -81.957  0.00  0.00    +0.000 Br
ATOM      7  C   UNL     1     -54.595 -42.287 -82.998  0.00  0.00    +0.000 A 
ATOM      8  C   UNL     1     -53.219 -42.470 -82.946  0.00  0.00    +0.000 A 
ATOM      9  C   UNL     1     -52.527 -42.337 -81.733  0.00  0.00    +0.000 A 
ATOM     10 CL   UNL     1     -50.819 -42.585 -81.836  0.00  0.00    +0.000 Cl
ATOM     11  C   UNL     1     -53.230 -42.008 -80.556  0.00  0.00    +0.000 A 
ATOM     12  C   UNL     1     -52.569 -41.841 -79.238  0.00  0.00    +0.000 A 
ATOM     13  O   UNL     1     -51.363 -41.993 -79.138  0.00  0.00    +0.000 OA
ATOM     14  H   UNL     1     -56.218 -41.031 -79.563  0.00  0.00    +0.000 HD
ENDROOT
BRANCH   1  16
ATOM     15  C   UNL     1     -52.528 -42.340 -75.727  0.00  0.00    +0.000 C 
ATOM     16  C   UNL     1     -52.656 -41.203 -76.714  0.00  0.00    +0.000 C 
ATOM     17  O   UNL     1     -52.179 -40.104 -76.425  0.00  0.00    +0.000 OA
ENDBRANCH   1  16
BRANCH   2  18
ATOM     18  S   UNL     1     -55.760 -40.521 -76.935  0.00  0.00    +0.000 S 
ATOM     19  O   UNL     1     -56.978 -40.077 -77.701  0.00  0.00    +0.000 OA
BRANCH  18  20
ATOM     20  C   UNL     1     -56.255 -42.032 -76.032  0.00  0.00    +0.000 C 
BRANCH  20  21
ATOM     21  C   UNL     1     -56.542 -41.771 -74.587  0.00  0.00    +0.000 A 
ATOM     22  C   UNL     1     -55.935 -42.304 -73.420  0.00  0.00    +0.000 A 
ATOM     23  C   UNL     1     -56.591 -41.696 -72.376  0.00  0.00    +0.000 A 
ATOM     24  C   UNL     1     -56.522 -41.801 -70.907  0.00  0.00    +0.000 C 
ATOM     25  O   UNL     1     -57.504 -40.823 -72.878  0.00  0.00    +0.000 OA
ATOM     26  N   UNL     1     -57.472 -40.861 -74.260  0.00  0.00    +0.000 NA
ENDBRANCH  20  21
ENDBRANCH  18  20
ENDBRANCH   2  18
TORSDOF 4
ENDMDL
MODEL 6
REMARK VINA RESULT:    -5.954     15.179     16.492
REMARK INTER + INTRA:          -8.350
REMARK INTER:                  -7.290
REMARK INTRA:                  -1.059
REMARK UNBOUND:                -1.003
REMARK  Name = 
REMARK  6 active torsions:
REMARK  status: ('A' for Active; 'I' for Inactive)
REMARK    1  A    between atoms: C_1  and  C_2
REMARK    2  A    between atoms: C_2  and  C_4
REMARK    3  A    between atoms: C_5  and  S_6
REMARK    4  A    between atoms: S_6  and  C_8
REMARK    5  A    between atoms: C_8  and  C_9
REMARK    6  A    between atoms: C_11  and  C_12
REMARK                            x       y       z     vdW  Elec       q    Type
REMARK                         _______ _______ _______ _____ _____    ______ ____
ROOT
ATOM      1  C   UNL     1     -53.382 -41.817 -77.950  0.00  0.00    +0.000 A 
ATOM      2  C   UNL     1     -54.725 -41.744 -78.097  0.00  0.00    +0.000 A 
ATOM      3  N   UNL     1     -55.363 -41.924 -79.309  0.00  0.00    +0.000 N 
ATOM      4  C   UNL     1     -54.669 -42.030 -80.529  0.00  0.00    +0.000 A 
ATOM      5  C   UNL     1     -55.358 -42.133 -81.749  0.00  0.00    +0.000 A 
ATOM      6 BR   UNL     1     -57.256 -42.047 -81.807  0.00  0.00    +0.000 Br
ATOM      7  C   UNL     1     -54.674 -42.293 -82.953  0.00  0.00    +0.000 A 
ATOM      8  C   UNL     1     -53.287 -42.361 -82.949  0.00  0.00    +0.000 A 
ATOM      9  C   UNL     1     -52.573 -42.285 -81.743  0.00  0.00    +0.000 A 
ATOM     10 CL   UNL     1     -50.854 -42.374 -81.906  0.00  0.00    +0.000 Cl
ATOM     11  C   UNL     1     -53.267 -42.131 -80.525  0.00  0.00    +0.000 A 
ATOM     12  C   UNL     1     -52.583 -42.034 -79.211  0.00  0.00    +0.000 A 
ATOM     13  O   UNL     1     -51.367 -42.091 -79.152  0.00  0.00    +0.000 OA
ATOM     14  H   UNL     1     -56.296 -41.515 -79.379  0.00  0.00    +0.000 HD
ENDROOT
BRANCH   1  16
ATOM     15  C   UNL     1     -52.535 -42.826 -75.695  0.00  0.00    +0.000 C 
ATOM     16  C   UNL     1     -52.649 -41.649 -76.636  0.00  0.00    +0.000 C 
ATOM     17  O   UNL     1     -52.149 -40.572 -76.309  0.00  0.00    +0.000 OA
ENDBRANCH   1  16
BRANCH   2  18
ATOM     18  S   UNL     1     -55.805 -41.219 -76.725  0.00  0.00    +0.000 S 
ATOM     19  O   UNL     1     -56.530 -40.025 -77.286  0.00  0.00    +0.000 OA
BRANCH  18  20
ATOM     20  C   UNL     1     -57.010 -42.595 -76.739  0.00  0.00    +0.000 C 
BRANCH  20  21
ATOM     21  C   UNL     1     -56.352 -43.937 -76.692  0.00  0.00    +0.000 A 
ATOM     22  C   UNL     1     -55.763 -44.633 -75.603  0.00  0.00    +0.000 A 
ATOM     23  C   UNL     1     -55.333 -45.823 -76.140  0.00  0.00    +0.000 A 
ATOM     24  C   UNL     1     -54.604 -46.992 -75.616  0.00  0.00    +0.000 C 
ATOM     25  O   UNL     1     -55.677 -45.862 -77.454  0.00  0.00    +0.000 OA
ATOM     26  N   UNL     1     -56.320 -44.689 -77.803  0.00  0.00    +0.000 NA
ENDBRANCH  20  21
ENDBRANCH  18  20
ENDBRANCH   2  18
TORSDOF 4
ENDMDL
MODEL 7
REMARK VINA RESULT:    -5.845     13.551     14.468
REMARK INTER + INTRA:          -8.215
REMARK INTER:                  -7.484
REMARK INTRA:                  -0.731
REMARK UNBOUND:                -1.003
REMARK  Name = 
REMARK  6 active torsions:
REMARK  status: ('A' for Active; 'I' for Inactive)
REMARK    1  A    between atoms: C_1  and  C_2
REMARK    2  A    between atoms: C_2  and  C_4
REMARK    3  A    between atoms: C_5  and  S_6
REMARK    4  A    between atoms: S_6  and  C_8
REMARK    5  A    between atoms: C_8  and  C_9
REMARK    6  A    between atoms: C_11  and  C_12
REMARK                            x       y       z     vdW  Elec       q    Type
REMARK                         _______ _______ _______ _____ _____    ______ ____
ROOT
ATOM      1  C   UNL     1     -57.163 -42.022 -78.574  0.00  0.00    +0.000 A 
ATOM      2  C   UNL     1     -56.776 -42.381 -77.329  0.00  0.00    +0.000 A 
ATOM      3  N   UNL     1     -55.459 -42.366 -76.913  0.00  0.00    +0.000 N 
ATOM      4  C   UNL     1     -54.384 -42.142 -77.793  0.00  0.00    +0.000 A 
ATOM      5  C   UNL     1     -53.053 -42.213 -77.346  0.00  0.00    +0.000 A 
ATOM      6 BR   UNL     1     -52.652 -42.701 -75.553  0.00  0.00    +0.000 Br
ATOM      7  C   UNL     1     -51.988 -41.938 -78.203  0.00  0.00    +0.000 A 
ATOM      8  C   UNL     1     -52.244 -41.578 -79.519  0.00  0.00    +0.000 A 
ATOM      9  C   UNL     1     -53.562 -41.475 -79.987  0.00  0.00    +0.000 A 
ATOM     10 CL   UNL     1     -53.714 -41.027 -81.650  0.00  0.00    +0.000 Cl
ATOM     11  C   UNL     1     -54.639 -41.745 -79.118  0.00  0.00    +0.000 A 
ATOM     12  C   UNL     1     -56.060 -41.667 -79.540  0.00  0.00    +0.000 A 
ATOM     13  O   UNL     1     -56.339 -41.353 -80.684  0.00  0.00    +0.000 OA
ATOM     14  H   UNL     1     -55.244 -42.965 -76.115  0.00  0.00    +0.000 HD
ENDROOT
BRANCH   1  16
ATOM     15  C   UNL     1     -59.437 -40.765 -78.839  0.00  0.00    +0.000 C 
ATOM     16  C   UNL     1     -58.598 -42.002 -79.058  0.00  0.00    +0.000 C 
ATOM     17  O   UNL     1     -59.102 -42.975 -79.621  0.00  0.00    +0.000 OA
ENDBRANCH   1  16
BRANCH   2  18
ATOM     18  S   UNL     1     -57.956 -43.093 -76.134  0.00  0.00    +0.000 S 
ATOM     19  O   UNL     1     -57.067 -43.764 -75.121  0.00  0.00    +0.000 OA
BRANCH  18  20
ATOM     20  C   UNL     1     -58.555 -41.558 -75.341  0.00  0.00    +0.000 C 
BRANCH  20  21
ATOM     21  C   UNL     1     -58.102 -41.429 -73.921  0.00  0.00    +0.000 A 
ATOM     22  C   UNL     1     -56.867 -40.971 -73.390  0.00  0.00    +0.000 A 
ATOM     23  C   UNL     1     -57.020 -41.056 -72.026  0.00  0.00    +0.000 A 
ATOM     24  C   UNL     1     -56.146 -40.798 -70.867  0.00  0.00    +0.000 C 
ATOM     25  O   UNL     1     -58.277 -41.495 -71.751  0.00  0.00    +0.000 OA
ATOM     26  N   UNL     1     -58.960 -41.722 -72.932  0.00  0.00    +0.000 NA
ENDBRANCH  20  21
ENDBRANCH  18  20
ENDBRANCH   2  18
TORSDOF 4
ENDMDL
MODEL 8
REMARK VINA RESULT:    -5.803     13.775     14.593
REMARK INTER + INTRA:          -8.163
REMARK INTER:                  -7.124
REMARK INTRA:                  -1.039
REMARK UNBOUND:                -1.003
REMARK  Name = 
REMARK  6 active torsions:
REMARK  status: ('A' for Active; 'I' for Inactive)
REMARK    1  A    between atoms: C_1  and  C_2
REMARK    2  A    between atoms: C_2  and  C_4
REMARK    3  A    between atoms: C_5  and  S_6
REMARK    4  A    between atoms: S_6  and  C_8
REMARK    5  A    between atoms: C_8  and  C_9
REMARK    6  A    between atoms: C_11  and  C_12
REMARK                            x       y       z     vdW  Elec       q    Type
REMARK                         _______ _______ _______ _____ _____    ______ ____
ROOT
ATOM      1  C   UNL     1     -55.450 -43.587 -76.978  0.00  0.00    +0.000 A 
ATOM      2  C   UNL     1     -56.556 -43.315 -77.707  0.00  0.00    +0.000 A 
ATOM      3  N   UNL     1     -57.508 -44.266 -78.019  0.00  0.00    +0.000 N 
ATOM      4  C   UNL     1     -57.333 -45.637 -77.754  0.00  0.00    +0.000 A 
ATOM      5  C   UNL     1     -58.291 -46.582 -78.158  0.00  0.00    +0.000 A 
ATOM      6 BR   UNL     1     -59.822 -46.055 -79.155  0.00  0.00    +0.000 Br
ATOM      7  C   UNL     1     -58.146 -47.934 -77.849  0.00  0.00    +0.000 A 
ATOM      8  C   UNL     1     -57.041 -48.355 -77.122  0.00  0.00    +0.000 A 
ATOM      9  C   UNL     1     -56.080 -47.431 -76.685  0.00  0.00    +0.000 A 
ATOM     10 CL   UNL     1     -54.760 -48.113 -75.801  0.00  0.00    +0.000 Cl
ATOM     11  C   UNL     1     -56.232 -46.063 -76.990  0.00  0.00    +0.000 A 
ATOM     12  C   UNL     1     -55.256 -45.026 -76.572  0.00  0.00    +0.000 A 
ATOM     13  O   UNL     1     -54.269 -45.344 -75.929  0.00  0.00    +0.000 OA
ATOM     14  H   UNL     1     -58.089 -44.055 -78.832  0.00  0.00    +0.000 HD
ENDROOT
BRANCH   1  16
ATOM     15  C   UNL     1     -53.183 -42.390 -77.478  0.00  0.00    +0.000 C 
ATOM     16  C   UNL     1     -54.398 -42.567 -76.596  0.00  0.00    +0.000 C 
ATOM     17  O   UNL     1     -54.503 -41.881 -75.579  0.00  0.00    +0.000 OA
ENDBRANCH   1  16
BRANCH   2  18
ATOM     18  S   UNL     1     -56.797 -41.690 -78.500  0.00  0.00    +0.000 S 
ATOM     19  O   UNL     1     -57.108 -42.041 -79.931  0.00  0.00    +0.000 OA
BRANCH  18  20
ATOM     20  C   UNL     1     -58.390 -41.211 -77.741  0.00  0.00    +0.000 C 
BRANCH  20  21
ATOM     21  C   UNL     1     -58.374 -41.323 -76.249  0.00  0.00    +0.000 A 
ATOM     22  C   UNL     1     -57.731 -40.515 -75.275  0.00  0.00    +0.000 A 
ATOM     23  C   UNL     1     -58.076 -41.078 -74.070  0.00  0.00    +0.000 A 
ATOM     24  C   UNL     1     -57.739 -40.801 -72.662  0.00  0.00    +0.000 C 
ATOM     25  O   UNL     1     -58.906 -42.130 -74.298  0.00  0.00    +0.000 OA
ATOM     26  N   UNL     1     -59.101 -42.283 -75.658  0.00  0.00    +0.000 NA
ENDBRANCH  20  21
ENDBRANCH  18  20
ENDBRANCH   2  18
TORSDOF 4
ENDMDL
MODEL 9
REMARK VINA RESULT:    -5.798     14.781     17.737
REMARK INTER + INTRA:          -8.156
REMARK INTER:                  -7.385
REMARK INTRA:                  -0.771
REMARK UNBOUND:                -1.003
REMARK  Name = 
REMARK  6 active torsions:
REMARK  status: ('A' for Active; 'I' for Inactive)
REMARK    1  A    between atoms: C_1  and  C_2
REMARK    2  A    between atoms: C_2  and  C_4
REMARK    3  A    between atoms: C_5  and  S_6
REMARK    4  A    between atoms: S_6  and  C_8
REMARK    5  A    between atoms: C_8  and  C_9
REMARK    6  A    between atoms: C_11  and  C_12
REMARK                            x       y       z     vdW  Elec       q    Type
REMARK                         _______ _______ _______ _____ _____    ______ ____
ROOT
ATOM      1  C   UNL     1     -68.871 -51.312 -55.620  0.00  0.00    +0.000 A 
ATOM      2  C   UNL     1     -68.073 -50.223 -55.695  0.00  0.00    +0.000 A 
ATOM      3  N   UNL     1     -66.891 -50.103 -54.990  0.00  0.00    +0.000 N 
ATOM      4  C   UNL     1     -66.494 -51.024 -54.004  0.00  0.00    +0.000 A 
ATOM      5  C   UNL     1     -65.322 -50.824 -53.253  0.00  0.00    +0.000 A 
ATOM      6 BR   UNL     1     -64.273 -49.255 -53.483  0.00  0.00    +0.000 Br
ATOM      7  C   UNL     1     -64.898 -51.762 -52.313  0.00  0.00    +0.000 A 
ATOM      8  C   UNL     1     -65.639 -52.920 -52.119  0.00  0.00    +0.000 A 
ATOM      9  C   UNL     1     -66.800 -53.159 -52.870  0.00  0.00    +0.000 A 
ATOM     10 CL   UNL     1     -67.616 -54.639 -52.504  0.00  0.00    +0.000 Cl
ATOM     11  C   UNL     1     -67.224 -52.213 -53.827  0.00  0.00    +0.000 A 
ATOM     12  C   UNL     1     -68.444 -52.388 -54.653  0.00  0.00    +0.000 A 
ATOM     13  O   UNL     1     -69.129 -53.388 -54.523  0.00  0.00    +0.000 OA
ATOM     14  H   UNL     1     -66.562 -49.147 -54.844  0.00  0.00    +0.000 HD
ENDROOT
BRANCH   1  16
ATOM     15  C   UNL     1     -71.467 -51.068 -55.765  0.00  0.00    +0.000 C 
ATOM     16  C   UNL     1     -70.160 -51.490 -56.395  0.00  0.00    +0.000 C 
ATOM     17  O   UNL     1     -70.171 -51.978 -57.526  0.00  0.00    +0.000 OA
ENDBRANCH   1  16
BRANCH   2  18
ATOM     18  S   UNL     1     -68.586 -48.728 -56.606  0.00  0.00    +0.000 S 
ATOM     19  O   UNL     1     -69.639 -48.121 -55.718  0.00  0.00    +0.000 OA
BRANCH  18  20
ATOM     20  C   UNL     1     -67.087 -47.704 -56.384  0.00  0.00    +0.000 C 
BRANCH  20  21
ATOM     21  C   UNL     1     -66.290 -47.570 -57.642  0.00  0.00    +0.000 A 
ATOM     22  C   UNL     1     -65.067 -46.890 -57.886  0.00  0.00    +0.000 A 
ATOM     23  C   UNL     1     -64.799 -47.119 -59.215  0.00  0.00    +0.000 A 
ATOM     24  C   UNL     1     -63.741 -46.688 -60.148  0.00  0.00    +0.000 C 
ATOM     25  O   UNL     1     -65.770 -47.919 -59.728  0.00  0.00    +0.000 OA
ATOM     26  N   UNL     1     -66.701 -48.210 -58.747  0.00  0.00    +0.000 NA
ENDBRANCH  20  21
ENDBRANCH  18  20
ENDBRANCH   2  18
TORSDOF 4
ENDMDL
MODEL 10
REMARK VINA RESULT:    -5.741     14.831     15.684
REMARK INTER + INTRA:          -8.086
REMARK INTER:                  -7.217
REMARK INTRA:                  -0.870
REMARK UNBOUND:                -1.003
REMARK  Name = 
REMARK  6 active torsions:
REMARK  status: ('A' for Active; 'I' for Inactive)
REMARK    1  A    between atoms: C_1  and  C_2
REMARK    2  A    between atoms: C_2  and  C_4
REMARK    3  A    between atoms: C_5  and  S_6
REMARK    4  A    between atoms: S_6  and  C_8
REMARK    5  A    between atoms: C_8  and  C_9
REMARK    6  A    between atoms: C_11  and  C_12
REMARK                            x       y       z     vdW  Elec       q    Type
REMARK                         _______ _______ _______ _____ _____    ______ ____
ROOT
ATOM      1  C   UNL     1     -56.584 -43.427 -78.533  0.00  0.00    +0.000 A 
ATOM      2  C   UNL     1     -55.656 -42.695 -77.875  0.00  0.00    +0.000 A 
ATOM      3  N   UNL     1     -54.725 -43.250 -77.019  0.00  0.00    +0.000 N 
ATOM      4  C   UNL     1     -54.762 -44.599 -76.621  0.00  0.00    +0.000 A 
ATOM      5  C   UNL     1     -53.843 -45.106 -75.686  0.00  0.00    +0.000 A 
ATOM      6 BR   UNL     1     -52.566 -43.966 -74.858  0.00  0.00    +0.000 Br
ATOM      7  C   UNL     1     -53.843 -46.454 -75.332  0.00  0.00    +0.000 A 
ATOM      8  C   UNL     1     -54.761 -47.316 -75.917  0.00  0.00    +0.000 A 
ATOM      9  C   UNL     1     -55.675 -46.843 -76.871  0.00  0.00    +0.000 A 
ATOM     10 CL   UNL     1     -56.758 -48.037 -77.498  0.00  0.00    +0.000 Cl
ATOM     11  C   UNL     1     -55.669 -45.481 -77.235  0.00  0.00    +0.000 A 
ATOM     12  C   UNL     1     -56.609 -44.904 -78.228  0.00  0.00    +0.000 A 
ATOM     13  O   UNL     1     -57.433 -45.618 -78.773  0.00  0.00    +0.000 OA
ATOM     14  H   UNL     1     -54.324 -42.609 -76.332  0.00  0.00    +0.000 HD
ENDROOT
BRANCH   1  16
ATOM     15  C   UNL     1     -57.233 -42.681 -80.951  0.00  0.00    +0.000 C 
ATOM     16  C   UNL     1     -57.604 -42.858 -79.497  0.00  0.00    +0.000 C 
ATOM     17  O   UNL     1     -58.731 -42.529 -79.123  0.00  0.00    +0.000 OA
ENDBRANCH   1  16
BRANCH   2  18
ATOM     18  S   UNL     1     -55.671 -40.872 -77.926  0.00  0.00    +0.000 S 
ATOM     19  O   UNL     1     -56.126 -40.487 -76.543  0.00  0.00    +0.000 OA
BRANCH  18  20
ATOM     20  C   UNL     1     -53.871 -40.551 -77.973  0.00  0.00    +0.000 C 
BRANCH  20  21
ATOM     21  C   UNL     1     -53.219 -41.108 -79.199  0.00  0.00    +0.000 A 
ATOM     22  C   UNL     1     -52.124 -42.002 -79.330  0.00  0.00    +0.000 A 
ATOM     23  C   UNL     1     -51.973 -42.175 -80.685  0.00  0.00    +0.000 A 
ATOM     24  C   UNL     1     -51.025 -42.916 -81.536  0.00  0.00    +0.000 C 
ATOM     25  O   UNL     1     -52.939 -41.467 -81.328  0.00  0.00    +0.000 OA
ATOM     26  N   UNL     1     -53.725 -40.804 -80.404  0.00  0.00    +0.000 NA
ENDBRANCH  20  21
ENDBRANCH  18  20
ENDBRANCH   2  18
TORSDOF 4
ENDMDL
MODEL 11
REMARK VINA RESULT:    -5.406      3.265      3.967
REMARK INTER + INTRA:          -7.673
REMARK INTER:                  -6.740
REMARK INTRA:                  -0.933
REMARK UNBOUND:                -1.003
REMARK  Name = 
REMARK  6 active torsions:
REMARK  status: ('A' for Active; 'I' for Inactive)
REMARK    1  A    between atoms: C_1  and  C_2
REMARK    2  A    between atoms: C_2  and  C_4
REMARK    3  A    between atoms: C_5  and  S_6
REMARK    4  A    between atoms: S_6  and  C_8
REMARK    5  A    between atoms: C_8  and  C_9
REMARK    6  A    between atoms: C_11  and  C_12
REMARK                            x       y       z     vdW  Elec       q    Type
REMARK                         _______ _______ _______ _____ _____    ______ ____
ROOT
ATOM      1  C   UNL     1     -56.552 -41.713 -62.567  0.00  0.00    +0.000 A 
ATOM      2  C   UNL     1     -56.992 -41.266 -61.369  0.00  0.00    +0.000 A 
ATOM      3  N   UNL     1     -56.486 -41.713 -60.164  0.00  0.00    +0.000 N 
ATOM      4  C   UNL     1     -55.591 -42.794 -60.066  0.00  0.00    +0.000 A 
ATOM      5  C   UNL     1     -55.161 -43.270 -58.815  0.00  0.00    +0.000 A 
ATOM      6 BR   UNL     1     -55.840 -42.526 -57.203  0.00  0.00    +0.000 Br
ATOM      7  C   UNL     1     -54.232 -44.305 -58.718  0.00  0.00    +0.000 A 
ATOM      8  C   UNL     1     -53.714 -44.872 -59.874  0.00  0.00    +0.000 A 
ATOM      9  C   UNL     1     -54.106 -44.402 -61.136  0.00  0.00    +0.000 A 
ATOM     10 CL   UNL     1     -53.380 -45.218 -62.478  0.00  0.00    +0.000 Cl
ATOM     11  C   UNL     1     -55.040 -43.350 -61.234  0.00  0.00    +0.000 A 
ATOM     12  C   UNL     1     -55.511 -42.804 -62.532  0.00  0.00    +0.000 A 
ATOM     13  O   UNL     1     -55.085 -43.265 -63.577  0.00  0.00    +0.000 OA
ATOM     14  H   UNL     1     -57.099 -41.588 -59.357  0.00  0.00    +0.000 HD
ENDROOT
BRANCH   1  16
ATOM     15  C   UNL     1     -56.398 -40.048 -64.574  0.00  0.00    +0.000 C 
ATOM     16  C   UNL     1     -57.064 -41.229 -63.908  0.00  0.00    +0.000 C 
ATOM     17  O   UNL     1     -58.019 -41.772 -64.467  0.00  0.00    +0.000 OA
ENDBRANCH   1  16
BRANCH   2  18
ATOM     18  S   UNL     1     -58.430 -40.152 -61.239  0.00  0.00    +0.000 S 
ATOM     19  O   UNL     1     -59.281 -40.801 -60.179  0.00  0.00    +0.000 OA
BRANCH  18  20
ATOM     20  C   UNL     1     -57.634 -38.714 -60.436  0.00  0.00    +0.000 C 
BRANCH  20  21
ATOM     21  C   UNL     1     -57.068 -37.744 -61.425  0.00  0.00    +0.000 A 
ATOM     22  C   UNL     1     -55.748 -37.614 -61.930  0.00  0.00    +0.000 A 
ATOM     23  C   UNL     1     -55.814 -36.566 -62.817  0.00  0.00    +0.000 A 
ATOM     24  C   UNL     1     -54.833 -35.856 -63.658  0.00  0.00    +0.000 C 
ATOM     25  O   UNL     1     -57.097 -36.120 -62.875  0.00  0.00    +0.000 OA
ATOM     26  N   UNL     1     -57.886 -36.858 -62.013  0.00  0.00    +0.000 NA
ENDBRANCH  20  21
ENDBRANCH  18  20
ENDBRANCH   2  18
TORSDOF 4
ENDMDL
MODEL 12
REMARK VINA RESULT:    -5.269     14.329     17.482
REMARK INTER + INTRA:          -7.504
REMARK INTER:                  -6.631
REMARK INTRA:                  -0.873
REMARK UNBOUND:                -1.003
REMARK  Name = 
REMARK  6 active torsions:
REMARK  status: ('A' for Active; 'I' for Inactive)
REMARK    1  A    between atoms: C_1  and  C_2
REMARK    2  A    between atoms: C_2  and  C_4
REMARK    3  A    between atoms: C_5  and  S_6
REMARK    4  A    between atoms: S_6  and  C_8
REMARK    5  A    between atoms: C_8  and  C_9
REMARK    6  A    between atoms: C_11  and  C_12
REMARK                            x       y       z     vdW  Elec       q    Type
REMARK                         _______ _______ _______ _____ _____    ______ ____
ROOT
ATOM      1  C   UNL     1     -65.525 -47.999 -54.832  0.00  0.00    +0.000 A 
ATOM      2  C   UNL     1     -66.850 -48.270 -54.853  0.00  0.00    +0.000 A 
ATOM      3  N   UNL     1     -67.617 -48.200 -56.000  0.00  0.00    +0.000 N 
ATOM      4  C   UNL     1     -67.131 -47.679 -57.213  0.00  0.00    +0.000 A 
ATOM      5  C   UNL     1     -67.968 -47.552 -58.335  0.00  0.00    +0.000 A 
ATOM      6 BR   UNL     1     -69.812 -48.001 -58.232  0.00  0.00    +0.000 Br
ATOM      7  C   UNL     1     -67.475 -47.086 -59.553  0.00  0.00    +0.000 A 
ATOM      8  C   UNL     1     -66.132 -46.749 -59.665  0.00  0.00    +0.000 A 
ATOM      9  C   UNL     1     -65.268 -46.888 -58.569  0.00  0.00    +0.000 A 
ATOM     10 CL   UNL     1     -63.631 -46.418 -58.865  0.00  0.00    +0.000 Cl
ATOM     11  C   UNL     1     -65.766 -47.367 -57.339  0.00  0.00    +0.000 A 
ATOM     12  C   UNL     1     -64.918 -47.533 -56.132  0.00  0.00    +0.000 A 
ATOM     13  O   UNL     1     -63.732 -47.253 -56.178  0.00  0.00    +0.000 OA
ATOM     14  H   UNL     1     -68.620 -48.079 -55.850  0.00  0.00    +0.000 HD
ENDROOT
BRANCH   1  16
ATOM     15  C   UNL     1     -64.003 -49.407 -53.244  0.00  0.00    +0.000 C 
ATOM     16  C   UNL     1     -64.647 -48.088 -53.601  0.00  0.00    +0.000 C 
ATOM     17  O   UNL     1     -64.450 -47.110 -52.878  0.00  0.00    +0.000 OA
ENDBRANCH   1  16
BRANCH   2  18
ATOM     18  S   UNL     1     -67.782 -48.581 -53.316  0.00  0.00    +0.000 S 
ATOM     19  O   UNL     1     -68.783 -47.457 -53.280  0.00  0.00    +0.000 OA
BRANCH  18  20
ATOM     20  C   UNL     1     -68.715 -50.072 -53.819  0.00  0.00    +0.000 C 
BRANCH  20  21
ATOM     21  C   UNL     1     -67.912 -51.326 -53.681  0.00  0.00    +0.000 A 
ATOM     22  C   UNL     1     -67.048 -51.753 -52.638  0.00  0.00    +0.000 A 
ATOM     23  C   UNL     1     -66.598 -52.988 -53.040  0.00  0.00    +0.000 A 
ATOM     24  C   UNL     1     -65.653 -53.977 -52.489  0.00  0.00    +0.000 C 
ATOM     25  O   UNL     1     -67.185 -53.306 -54.224  0.00  0.00    +0.000 OA
ATOM     26  N   UNL     1     -68.013 -52.274 -54.626  0.00  0.00    +0.000 NA
ENDBRANCH  20  21
ENDBRANCH  18  20
ENDBRANCH   2  18
TORSDOF 4
ENDMDL
MODEL 13
REMARK VINA RESULT:    -5.076      4.504      5.355
REMARK INTER + INTRA:          -7.266
REMARK INTER:                  -6.443
REMARK INTRA:                  -0.823
REMARK UNBOUND:                -1.003
REMARK  Name = 
REMARK  6 active torsions:
REMARK  status: ('A' for Active; 'I' for Inactive)
REMARK    1  A    between atoms: C_1  and  C_2
REMARK    2  A    between atoms: C_2  and  C_4
REMARK    3  A    between atoms: C_5  and  S_6
REMARK    4  A    between atoms: S_6  and  C_8
REMARK    5  A    between atoms: C_8  and  C_9
REMARK    6  A    between atoms: C_11  and  C_12
REMARK                            x       y       z     vdW  Elec       q    Type
REMARK                         _______ _______ _______ _____ _____    ______ ____
ROOT
ATOM      1  C   UNL     1     -58.991 -39.604 -62.256  0.00  0.00    +0.000 A 
ATOM      2  C   UNL     1     -58.101 -38.590 -62.167  0.00  0.00    +0.000 A 
ATOM      3  N   UNL     1     -56.900 -38.576 -62.850  0.00  0.00    +0.000 N 
ATOM      4  C   UNL     1     -56.417 -39.688 -63.565  0.00  0.00    +0.000 A 
ATOM      5  C   UNL     1     -55.153 -39.661 -64.180  0.00  0.00    +0.000 A 
ATOM      6 BR   UNL     1     -54.012 -38.151 -63.999  0.00  0.00    +0.000 Br
ATOM      7  C   UNL     1     -54.695 -40.740 -64.934  0.00  0.00    +0.000 A 
ATOM      8  C   UNL     1     -55.501 -41.859 -65.089  0.00  0.00    +0.000 A 
ATOM      9  C   UNL     1     -56.777 -41.905 -64.506  0.00  0.00    +0.000 A 
ATOM     10 CL   UNL     1     -57.653 -43.370 -64.781  0.00  0.00    +0.000 Cl
ATOM     11  C   UNL     1     -57.243 -40.810 -63.750  0.00  0.00    +0.000 A 
ATOM     12  C   UNL     1     -58.575 -40.786 -63.095  0.00  0.00    +0.000 A 
ATOM     13  O   UNL     1     -59.323 -41.743 -63.202  0.00  0.00    +0.000 OA
ATOM     14  H   UNL     1     -56.179 -37.970 -62.457  0.00  0.00    +0.000 HD
ENDROOT
BRANCH   1  16
ATOM     15  C   UNL     1     -61.545 -39.059 -62.218  0.00  0.00    +0.000 C 
ATOM     16  C   UNL     1     -60.327 -39.644 -61.542  0.00  0.00    +0.000 C 
ATOM     17  O   UNL     1     -60.443 -40.135 -60.419  0.00  0.00    +0.000 OA
ENDBRANCH   1  16
BRANCH   2  18
ATOM     18  S   UNL     1     -58.334 -37.221 -60.985  0.00  0.00    +0.000 S 
ATOM     19  O   UNL     1     -56.929 -36.862 -60.583  0.00  0.00    +0.000 OA
BRANCH  18  20
ATOM     20  C   UNL     1     -58.879 -35.909 -62.138  0.00  0.00    +0.000 C 
BRANCH  20  21
ATOM     21  C   UNL     1     -60.277 -35.450 -61.868  0.00  0.00    +0.000 A 
ATOM     22  C   UNL     1     -61.137 -35.722 -60.771  0.00  0.00    +0.000 A 
ATOM     23  C   UNL     1     -62.289 -35.026 -61.048  0.00  0.00    +0.000 A 
ATOM     24  C   UNL     1     -63.600 -34.886 -60.387  0.00  0.00    +0.000 C 
ATOM     25  O   UNL     1     -62.122 -34.345 -62.212  0.00  0.00    +0.000 OA
ATOM     26  N   UNL     1     -60.863 -34.601 -62.725  0.00  0.00    +0.000 NA
ENDBRANCH  20  21
ENDBRANCH  18  20
ENDBRANCH   2  18
TORSDOF 4
ENDMDL
MODEL 14
REMARK VINA RESULT:    -5.050     13.585     16.587
REMARK INTER + INTRA:          -7.234
REMARK INTER:                  -6.405
REMARK INTRA:                  -0.829
REMARK UNBOUND:                -1.003
REMARK  Name = 
REMARK  6 active torsions:
REMARK  status: ('A' for Active; 'I' for Inactive)
REMARK    1  A    between atoms: C_1  and  C_2
REMARK    2  A    between atoms: C_2  and  C_4
REMARK    3  A    between atoms: C_5  and  S_6
REMARK    4  A    between atoms: S_6  and  C_8
REMARK    5  A    between atoms: C_8  and  C_9
REMARK    6  A    between atoms: C_11  and  C_12
REMARK                            x       y       z     vdW  Elec       q    Type
REMARK                         _______ _______ _______ _____ _____    ______ ____
ROOT
ATOM      1  C   UNL     1     -68.350 -49.818 -55.539  0.00  0.00    +0.000 A 
ATOM      2  C   UNL     1     -67.924 -48.564 -55.814  0.00  0.00    +0.000 A 
ATOM      3  N   UNL     1     -66.721 -48.059 -55.361  0.00  0.00    +0.000 N 
ATOM      4  C   UNL     1     -65.908 -48.739 -54.435  0.00  0.00    +0.000 A 
ATOM      5  C   UNL     1     -64.729 -48.156 -53.938  0.00  0.00    +0.000 A 
ATOM      6 BR   UNL     1     -64.232 -46.389 -54.434  0.00  0.00    +0.000 Br
ATOM      7  C   UNL     1     -63.895 -48.849 -53.062  0.00  0.00    +0.000 A 
ATOM      8  C   UNL     1     -64.227 -50.142 -52.679  0.00  0.00    +0.000 A 
ATOM      9  C   UNL     1     -65.384 -50.758 -53.177  0.00  0.00    +0.000 A 
ATOM     10 CL   UNL     1     -65.664 -52.363 -52.597  0.00  0.00    +0.000 Cl
ATOM     11  C   UNL     1     -66.224 -50.059 -54.069  0.00  0.00    +0.000 A 
ATOM     12  C   UNL     1     -67.469 -50.639 -54.631  0.00  0.00    +0.000 A 
ATOM     13  O   UNL     1     -67.804 -51.772 -54.328  0.00  0.00    +0.000 OA
ATOM     14  H   UNL     1     -66.659 -47.041 -55.322  0.00  0.00    +0.000 HD
ENDROOT
BRANCH   1  16
ATOM     15  C   UNL     1     -70.907 -50.241 -55.216  0.00  0.00    +0.000 C 
ATOM     16  C   UNL     1     -69.650 -50.414 -56.037  0.00  0.00    +0.000 C 
ATOM     17  O   UNL     1     -69.708 -51.045 -57.094  0.00  0.00    +0.000 OA
ENDBRANCH   1  16
BRANCH   2  18
ATOM     18  S   UNL     1     -68.996 -47.360 -56.666  0.00  0.00    +0.000 S 
ATOM     19  O   UNL     1     -68.247 -46.062 -56.524  0.00  0.00    +0.000 OA
BRANCH  18  20
ATOM     20  C   UNL     1     -68.748 -47.899 -58.397  0.00  0.00    +0.000 C 
BRANCH  20  21
ATOM     21  C   UNL     1     -67.479 -47.372 -58.987  0.00  0.00    +0.000 A 
ATOM     22  C   UNL     1     -66.170 -47.921 -58.988  0.00  0.00    +0.000 A 
ATOM     23  C   UNL     1     -65.410 -47.015 -59.689  0.00  0.00    +0.000 A 
ATOM     24  C   UNL     1     -63.981 -46.910 -60.037  0.00  0.00    +0.000 C 
ATOM     25  O   UNL     1     -66.214 -46.007 -60.119  0.00  0.00    +0.000 OA
ATOM     26  N   UNL     1     -67.510 -46.229 -59.689  0.00  0.00    +0.000 NA
ENDBRANCH  20  21
ENDBRANCH  18  20
ENDBRANCH   2  18
TORSDOF 4
ENDMDL
MODEL 15
REMARK VINA RESULT:    -5.016      7.338      9.331
REMARK INTER + INTRA:          -7.192
REMARK INTER:                  -6.458
REMARK INTRA:                  -0.734
REMARK UNBOUND:                -1.003
REMARK  Name = 
REMARK  6 active torsions:
REMARK  status: ('A' for Active; 'I' for Inactive)
REMARK    1  A    between atoms: C_1  and  C_2
REMARK    2  A    between atoms: C_2  and  C_4
REMARK    3  A    between atoms: C_5  and  S_6
REMARK    4  A    between atoms: S_6  and  C_8
REMARK    5  A    between atoms: C_8  and  C_9
REMARK    6  A    between atoms: C_11  and  C_12
REMARK                            x       y       z     vdW  Elec       q    Type
REMARK                         _______ _______ _______ _____ _____    ______ ____
ROOT
ATOM      1  C   UNL     1     -54.980 -34.003 -61.427  0.00  0.00    +0.000 A 
ATOM      2  C   UNL     1     -55.340 -32.900 -60.733  0.00  0.00    +0.000 A 
ATOM      3  N   UNL     1     -54.426 -32.023 -60.181  0.00  0.00    +0.000 N 
ATOM      4  C   UNL     1     -53.044 -32.285 -60.143  0.00  0.00    +0.000 A 
ATOM      5  C   UNL     1     -52.156 -31.404 -59.502  0.00  0.00    +0.000 A 
ATOM      6 BR   UNL     1     -52.798 -29.867 -58.587  0.00  0.00    +0.000 Br
ATOM      7  C   UNL     1     -50.781 -31.634 -59.510  0.00  0.00    +0.000 A 
ATOM      8  C   UNL     1     -50.276 -32.747 -60.169  0.00  0.00    +0.000 A 
ATOM      9  C   UNL     1     -51.136 -33.631 -60.838  0.00  0.00    +0.000 A 
ATOM     10 CL   UNL     1     -50.356 -34.972 -61.601  0.00  0.00    +0.000 Cl
ATOM     11  C   UNL     1     -52.526 -33.393 -60.836  0.00  0.00    +0.000 A 
ATOM     12  C   UNL     1     -53.501 -34.286 -61.512  0.00  0.00    +0.000 A 
ATOM     13  O   UNL     1     -53.109 -35.275 -62.107  0.00  0.00    +0.000 OA
ATOM     14  H   UNL     1     -54.777 -31.450 -59.413  0.00  0.00    +0.000 HD
ENDROOT
BRANCH   1  16
ATOM     15  C   UNL     1     -56.391 -36.198 -61.297  0.00  0.00    +0.000 C 
ATOM     16  C   UNL     1     -55.952 -34.974 -62.066  0.00  0.00    +0.000 C 
ATOM     17  O   UNL     1     -56.389 -34.794 -63.204  0.00  0.00    +0.000 OA
ENDBRANCH   1  16
BRANCH   2  18
ATOM     18  S   UNL     1     -57.083 -32.568 -60.310  0.00  0.00    +0.000 S 
ATOM     19  O   UNL     1     -57.111 -32.701 -58.811  0.00  0.00    +0.000 OA
BRANCH  18  20
ATOM     20  C   UNL     1     -57.148 -30.774 -60.658  0.00  0.00    +0.000 C 
BRANCH  20  21
ATOM     21  C   UNL     1     -57.751 -30.468 -61.992  0.00  0.00    +0.000 A 
ATOM     22  C   UNL     1     -58.390 -31.323 -62.929  0.00  0.00    +0.000 A 
ATOM     23  C   UNL     1     -58.757 -30.496 -63.963  0.00  0.00    +0.000 A 
ATOM     24  C   UNL     1     -59.407 -30.699 -65.271  0.00  0.00    +0.000 C 
ATOM     25  O   UNL     1     -58.404 -29.221 -63.654  0.00  0.00    +0.000 OA
ATOM     26  N   UNL     1     -57.781 -29.196 -62.420  0.00  0.00    +0.000 NA
ENDBRANCH  20  21
ENDBRANCH  18  20
ENDBRANCH   2  18
TORSDOF 4
ENDMDL
MODEL 16
REMARK VINA RESULT:    -4.867     16.792     19.979
REMARK INTER + INTRA:          -7.008
REMARK INTER:                  -6.110
REMARK INTRA:                  -0.898
REMARK UNBOUND:                -1.003
REMARK  Name = 
REMARK  6 active torsions:
REMARK  status: ('A' for Active; 'I' for Inactive)
REMARK    1  A    between atoms: C_1  and  C_2
REMARK    2  A    between atoms: C_2  and  C_4
REMARK    3  A    between atoms: C_5  and  S_6
REMARK    4  A    between atoms: S_6  and  C_8
REMARK    5  A    between atoms: C_8  and  C_9
REMARK    6  A    between atoms: C_11  and  C_12
REMARK                            x       y       z     vdW  Elec       q    Type
REMARK                         _______ _______ _______ _____ _____    ______ ____
ROOT
ATOM      1  C   UNL     1     -67.599 -49.443 -55.620  0.00  0.00    +0.000 A 
ATOM      2  C   UNL     1     -68.382 -50.543 -55.545  0.00  0.00    +0.000 A 
ATOM      3  N   UNL     1     -68.160 -51.569 -54.647  0.00  0.00    +0.000 N 
ATOM      4  C   UNL     1     -67.005 -51.645 -53.847  0.00  0.00    +0.000 A 
ATOM      5  C   UNL     1     -66.778 -52.747 -53.003  0.00  0.00    +0.000 A 
ATOM      6 BR   UNL     1     -67.983 -54.217 -52.975  0.00  0.00    +0.000 Br
ATOM      7  C   UNL     1     -65.663 -52.799 -52.168  0.00  0.00    +0.000 A 
ATOM      8  C   UNL     1     -64.762 -51.742 -52.162  0.00  0.00    +0.000 A 
ATOM      9  C   UNL     1     -64.975 -50.619 -52.976  0.00  0.00    +0.000 A 
ATOM     10 CL   UNL     1     -63.759 -49.394 -52.862  0.00  0.00    +0.000 Cl
ATOM     11  C   UNL     1     -66.108 -50.564 -53.813  0.00  0.00    +0.000 A 
ATOM     12  C   UNL     1     -66.397 -49.416 -54.709  0.00  0.00    +0.000 A 
ATOM     13  O   UNL     1     -65.639 -48.461 -54.740  0.00  0.00    +0.000 OA
ATOM     14  H   UNL     1     -68.569 -52.470 -54.900  0.00  0.00    +0.000 HD
ENDROOT
BRANCH   1  16
ATOM     15  C   UNL     1     -67.153 -48.302 -57.926  0.00  0.00    +0.000 C 
ATOM     16  C   UNL     1     -67.825 -48.288 -56.573  0.00  0.00    +0.000 C 
ATOM     17  O   UNL     1     -68.540 -47.332 -56.270  0.00  0.00    +0.000 OA
ENDBRANCH   1  16
BRANCH   2  18
ATOM     18  S   UNL     1     -69.708 -50.852 -56.759  0.00  0.00    +0.000 S 
ATOM     19  O   UNL     1     -69.928 -52.338 -56.667  0.00  0.00    +0.000 OA
BRANCH  18  20
ATOM     20  C   UNL     1     -71.114 -50.079 -55.881  0.00  0.00    +0.000 C 
BRANCH  20  21
ATOM     21  C   UNL     1     -71.811 -51.030 -54.960  0.00  0.00    +0.000 A 
ATOM     22  C   UNL     1     -71.512 -51.397 -53.622  0.00  0.00    +0.000 A 
ATOM     23  C   UNL     1     -72.496 -52.293 -53.276  0.00  0.00    +0.000 A 
ATOM     24  C   UNL     1     -72.785 -53.103 -52.079  0.00  0.00    +0.000 C 
ATOM     25  O   UNL     1     -73.356 -52.426 -54.320  0.00  0.00    +0.000 OA
ATOM     26  N   UNL     1     -72.936 -51.633 -55.373  0.00  0.00    +0.000 NA
ENDBRANCH  20  21
ENDBRANCH  18  20
ENDBRANCH   2  18
TORSDOF 4
ENDMDL
MODEL 17
REMARK VINA RESULT:    -4.820     11.367     13.240
REMARK INTER + INTRA:          -6.950
REMARK INTER:                  -6.076
REMARK INTRA:                  -0.874
REMARK UNBOUND:                -1.003
REMARK  Name = 
REMARK  6 active torsions:
REMARK  status: ('A' for Active; 'I' for Inactive)
REMARK    1  A    between atoms: C_1  and  C_2
REMARK    2  A    between atoms: C_2  and  C_4
REMARK    3  A    between atoms: C_5  and  S_6
REMARK    4  A    between atoms: S_6  and  C_8
REMARK    5  A    between atoms: C_8  and  C_9
REMARK    6  A    between atoms: C_11  and  C_12
REMARK                            x       y       z     vdW  Elec       q    Type
REMARK                         _______ _______ _______ _____ _____    ______ ____
ROOT
ATOM      1  C   UNL     1     -63.854 -42.832 -70.098  0.00  0.00    +0.000 A 
ATOM      2  C   UNL     1     -65.138 -42.499 -69.835  0.00  0.00    +0.000 A 
ATOM      3  N   UNL     1     -65.510 -41.714 -68.761  0.00  0.00    +0.000 N 
ATOM      4  C   UNL     1     -64.611 -41.331 -67.749  0.00  0.00    +0.000 A 
ATOM      5  C   UNL     1     -65.046 -40.598 -66.631  0.00  0.00    +0.000 A 
ATOM      6 BR   UNL     1     -66.884 -40.169 -66.402  0.00  0.00    +0.000 Br
ATOM      7  C   UNL     1     -64.148 -40.171 -65.654  0.00  0.00    +0.000 A 
ATOM      8  C   UNL     1     -62.798 -40.466 -65.789  0.00  0.00    +0.000 A 
ATOM      9  C   UNL     1     -62.331 -41.175 -66.905  0.00  0.00    +0.000 A 
ATOM     10 CL   UNL     1     -60.628 -41.472 -66.922  0.00  0.00    +0.000 Cl
ATOM     11  C   UNL     1     -63.239 -41.599 -67.897  0.00  0.00    +0.000 A 
ATOM     12  C   UNL     1     -62.825 -42.361 -69.102  0.00  0.00    +0.000 A 
ATOM     13  O   UNL     1     -61.650 -42.644 -69.269  0.00  0.00    +0.000 OA
ATOM     14  H   UNL     1     -66.481 -41.813 -68.460  0.00  0.00    +0.000 HD
ENDROOT
BRANCH   1  16
ATOM     15  C   UNL     1     -63.314 -45.171 -71.129  0.00  0.00    +0.000 C 
ATOM     16  C   UNL     1     -63.406 -43.670 -71.278  0.00  0.00    +0.000 C 
ATOM     17  O   UNL     1     -63.107 -43.156 -72.357  0.00  0.00    +0.000 OA
ENDBRANCH   1  16
BRANCH   2  18
ATOM     18  S   UNL     1     -66.521 -43.214 -70.786  0.00  0.00    +0.000 S 
ATOM     19  O   UNL     1     -67.712 -42.996 -69.891  0.00  0.00    +0.000 OA
BRANCH  18  20
ATOM     20  C   UNL     1     -66.656 -41.967 -72.117  0.00  0.00    +0.000 C 
BRANCH  20  21
ATOM     21  C   UNL     1     -67.678 -40.916 -71.819  0.00  0.00    +0.000 A 
ATOM     22  C   UNL     1     -67.566 -39.712 -71.075  0.00  0.00    +0.000 A 
ATOM     23  C   UNL     1     -68.813 -39.138 -71.148  0.00  0.00    +0.000 A 
ATOM     24  C   UNL     1     -69.431 -37.925 -70.582  0.00  0.00    +0.000 C 
ATOM     25  O   UNL     1     -69.612 -39.920 -71.921  0.00  0.00    +0.000 OA
ATOM     26  N   UNL     1     -68.905 -41.029 -72.349  0.00  0.00    +0.000 NA
ENDBRANCH  20  21
ENDBRANCH  18  20
ENDBRANCH   2  18
TORSDOF 4
ENDMDL
MODEL 18
REMARK VINA RESULT:    -4.597     11.517     13.529
REMARK INTER + INTRA:          -6.675
REMARK INTER:                  -5.866
REMARK INTRA:                  -0.809
REMARK UNBOUND:                -1.003
REMARK  Name = 
REMARK  6 active torsions:
REMARK  status: ('A' for Active; 'I' for Inactive)
REMARK    1  A    between atoms: C_1  and  C_2
REMARK    2  A    between atoms: C_2  and  C_4
REMARK    3  A    between atoms: C_5  and  S_6
REMARK    4  A    between atoms: S_6  and  C_8
REMARK    5  A    between atoms: C_8  and  C_9
REMARK    6  A    between atoms: C_11  and  C_12
REMARK                            x       y       z     vdW  Elec       q    Type
REMARK                         _______ _______ _______ _____ _____    ______ ____
ROOT
ATOM      1  C   UNL     1     -65.936 -42.279 -71.485  0.00  0.00    +0.000 A 
ATOM      2  C   UNL     1     -66.240 -41.914 -70.219  0.00  0.00    +0.000 A 
ATOM      3  N   UNL     1     -65.282 -41.604 -69.272  0.00  0.00    +0.000 N 
ATOM      4  C   UNL     1     -63.906 -41.804 -69.485  0.00  0.00    +0.000 A 
ATOM      5  C   UNL     1     -62.969 -41.551 -68.468  0.00  0.00    +0.000 A 
ATOM      6 BR   UNL     1     -63.535 -41.010 -66.735  0.00  0.00    +0.000 Br
ATOM      7  C   UNL     1     -61.602 -41.696 -68.694  0.00  0.00    +0.000 A 
ATOM      8  C   UNL     1     -61.152 -42.089 -69.947  0.00  0.00    +0.000 A 
ATOM      9  C   UNL     1     -62.061 -42.326 -70.989  0.00  0.00    +0.000 A 
ATOM     10 CL   UNL     1     -61.347 -42.818 -72.485  0.00  0.00    +0.000 Cl
ATOM     11  C   UNL     1     -63.445 -42.171 -70.762  0.00  0.00    +0.000 A 
ATOM     12  C   UNL     1     -64.469 -42.411 -71.809  0.00  0.00    +0.000 A 
ATOM     13  O   UNL     1     -64.127 -42.756 -72.928  0.00  0.00    +0.000 OA
ATOM     14  H   UNL     1     -65.584 -41.686 -68.300  0.00  0.00    +0.000 HD
ENDROOT
BRANCH   1  16
ATOM     15  C   UNL     1     -67.546 -41.481 -73.381  0.00  0.00    +0.000 C 
ATOM     16  C   UNL     1     -66.957 -42.602 -72.556  0.00  0.00    +0.000 C 
ATOM     17  O   UNL     1     -67.326 -43.758 -72.768  0.00  0.00    +0.000 OA
ENDBRANCH   1  16
BRANCH   2  18
ATOM     18  S   UNL     1     -67.953 -41.972 -69.596  0.00  0.00    +0.000 S 
ATOM     19  O   UNL     1     -68.001 -43.263 -68.823  0.00  0.00    +0.000 OA
BRANCH  18  20
ATOM     20  C   UNL     1     -67.871 -40.638 -68.347  0.00  0.00    +0.000 C 
BRANCH  20  21
ATOM     21  C   UNL     1     -68.300 -41.095 -66.989  0.00  0.00    +0.000 A 
ATOM     22  C   UNL     1     -67.526 -41.477 -65.862  0.00  0.00    +0.000 A 
ATOM     23  C   UNL     1     -68.449 -41.785 -64.891  0.00  0.00    +0.000 A 
ATOM     24  C   UNL     1     -68.370 -42.292 -63.509  0.00  0.00    +0.000 C 
ATOM     25  O   UNL     1     -69.696 -41.565 -65.384  0.00  0.00    +0.000 OA
ATOM     26  N   UNL     1     -69.609 -41.126 -66.693  0.00  0.00    +0.000 NA
ENDBRANCH  20  21
ENDBRANCH  18  20
ENDBRANCH   2  18
TORSDOF 4
ENDMDL
MODEL 19
REMARK VINA RESULT:    -4.531     11.762     13.790
REMARK INTER + INTRA:          -6.594
REMARK INTER:                  -5.990
REMARK INTRA:                  -0.603
REMARK UNBOUND:                -1.003
REMARK  Name = 
REMARK  6 active torsions:
REMARK  status: ('A' for Active; 'I' for Inactive)
REMARK    1  A    between atoms: C_1  and  C_2
REMARK    2  A    between atoms: C_2  and  C_4
REMARK    3  A    between atoms: C_5  and  S_6
REMARK    4  A    between atoms: S_6  and  C_8
REMARK    5  A    between atoms: C_8  and  C_9
REMARK    6  A    between atoms: C_11  and  C_12
REMARK                            x       y       z     vdW  Elec       q    Type
REMARK                         _______ _______ _______ _____ _____    ______ ____
ROOT
ATOM      1  C   UNL     1     -63.772 -42.684 -70.192  0.00  0.00    +0.000 A 
ATOM      2  C   UNL     1     -65.059 -42.367 -69.923  0.00  0.00    +0.000 A 
ATOM      3  N   UNL     1     -65.439 -41.628 -68.819  0.00  0.00    +0.000 N 
ATOM      4  C   UNL     1     -64.547 -41.283 -67.787  0.00  0.00    +0.000 A 
ATOM      5  C   UNL     1     -64.991 -40.598 -66.643  0.00  0.00    +0.000 A 
ATOM      6 BR   UNL     1     -66.831 -40.186 -66.406  0.00  0.00    +0.000 Br
ATOM      7  C   UNL     1     -64.099 -40.208 -65.645  0.00  0.00    +0.000 A 
ATOM      8  C   UNL     1     -62.747 -40.492 -65.784  0.00  0.00    +0.000 A 
ATOM      9  C   UNL     1     -62.272 -41.153 -66.926  0.00  0.00    +0.000 A 
ATOM     10 CL   UNL     1     -60.567 -41.442 -66.946  0.00  0.00    +0.000 Cl
ATOM     11  C   UNL     1     -63.173 -41.540 -67.939  0.00  0.00    +0.000 A 
ATOM     12  C   UNL     1     -62.749 -42.251 -69.172  0.00  0.00    +0.000 A 
ATOM     13  O   UNL     1     -61.573 -42.522 -69.344  0.00  0.00    +0.000 OA
ATOM     14  H   UNL     1     -66.411 -41.743 -68.528  0.00  0.00    +0.000 HD
ENDROOT
BRANCH   1  16
ATOM     15  C   UNL     1     -63.235 -44.978 -71.320  0.00  0.00    +0.000 C 
ATOM     16  C   UNL     1     -63.314 -43.472 -71.403  0.00  0.00    +0.000 C 
ATOM     17  O   UNL     1     -62.997 -42.912 -72.454  0.00  0.00    +0.000 OA
ENDBRANCH   1  16
BRANCH   2  18
ATOM     18  S   UNL     1     -66.433 -43.048 -70.909  0.00  0.00    +0.000 S 
ATOM     19  O   UNL     1     -67.514 -43.284 -69.888  0.00  0.00    +0.000 OA
BRANCH  18  20
ATOM     20  C   UNL     1     -66.926 -41.545 -71.827  0.00  0.00    +0.000 C 
BRANCH  20  21
ATOM     21  C   UNL     1     -67.362 -41.843 -73.227  0.00  0.00    +0.000 A 
ATOM     22  C   UNL     1     -68.316 -41.189 -74.050  0.00  0.00    +0.000 A 
ATOM     23  C   UNL     1     -68.291 -41.883 -75.236  0.00  0.00    +0.000 A 
ATOM     24  C   UNL     1     -69.038 -41.797 -76.504  0.00  0.00    +0.000 C 
ATOM     25  O   UNL     1     -67.354 -42.864 -75.150  0.00  0.00    +0.000 OA
ATOM     26  N   UNL     1     -66.765 -42.839 -73.899  0.00  0.00    +0.000 NA
ENDBRANCH  20  21
ENDBRANCH  18  20
ENDBRANCH   2  18
TORSDOF 4
ENDMDL
MODEL 20
REMARK VINA RESULT:    -4.282     13.119     14.635
REMARK INTER + INTRA:          -6.286
REMARK INTER:                  -5.674
REMARK INTRA:                  -0.613
REMARK UNBOUND:                -1.003
REMARK  Name = 
REMARK  6 active torsions:
REMARK  status: ('A' for Active; 'I' for Inactive)
REMARK    1  A    between atoms: C_1  and  C_2
REMARK    2  A    between atoms: C_2  and  C_4
REMARK    3  A    between atoms: C_5  and  S_6
REMARK    4  A    between atoms: S_6  and  C_8
REMARK    5  A    between atoms: C_8  and  C_9
REMARK    6  A    between atoms: C_11  and  C_12
REMARK                            x       y       z     vdW  Elec       q    Type
REMARK                         _______ _______ _______ _____ _____    ______ ____
ROOT
ATOM      1  C   UNL     1     -66.581 -41.794 -71.167  0.00  0.00    +0.000 A 
ATOM      2  C   UNL     1     -66.860 -40.918 -70.175  0.00  0.00    +0.000 A 
ATOM      3  N   UNL     1     -65.924 -40.504 -69.248  0.00  0.00    +0.000 N 
ATOM      4  C   UNL     1     -64.644 -41.081 -69.146  0.00  0.00    +0.000 A 
ATOM      5  C   UNL     1     -63.749 -40.685 -68.137  0.00  0.00    +0.000 A 
ATOM      6 BR   UNL     1     -64.263 -39.415 -66.819  0.00  0.00    +0.000 Br
ATOM      7  C   UNL     1     -62.461 -41.216 -68.066  0.00  0.00    +0.000 A 
ATOM      8  C   UNL     1     -62.051 -42.145 -69.013  0.00  0.00    +0.000 A 
ATOM      9  C   UNL     1     -62.915 -42.541 -70.045  0.00  0.00    +0.000 A 
ATOM     10 CL   UNL     1     -62.260 -43.712 -71.136  0.00  0.00    +0.000 Cl
ATOM     11  C   UNL     1     -64.214 -41.998 -70.120  0.00  0.00    +0.000 A 
ATOM     12  C   UNL     1     -65.188 -42.373 -71.175  0.00  0.00    +0.000 A 
ATOM     13  O   UNL     1     -64.877 -43.183 -72.032  0.00  0.00    +0.000 OA
ATOM     14  H   UNL     1     -66.304 -40.141 -68.372  0.00  0.00    +0.000 HD
ENDROOT
BRANCH   1  16
ATOM     15  C   UNL     1     -67.738 -41.447 -73.483  0.00  0.00    +0.000 C 
ATOM     16  C   UNL     1     -67.574 -42.253 -72.215  0.00  0.00    +0.000 C 
ATOM     17  O   UNL     1     -68.258 -43.265 -72.057  0.00  0.00    +0.000 OA
ENDBRANCH   1  16
BRANCH   2  18
ATOM     18  S   UNL     1     -68.562 -40.340 -69.867  0.00  0.00    +0.000 S 
ATOM     19  O   UNL     1     -68.546 -39.965 -68.409  0.00  0.00    +0.000 OA
BRANCH  18  20
ATOM     20  C   UNL     1     -68.525 -38.764 -70.793  0.00  0.00    +0.000 C 
BRANCH  20  21
ATOM     21  C   UNL     1     -69.835 -38.044 -70.758  0.00  0.00    +0.000 A 
ATOM     22  C   UNL     1     -70.837 -37.912 -71.755  0.00  0.00    +0.000 A 
ATOM     23  C   UNL     1     -71.823 -37.159 -71.163  0.00  0.00    +0.000 A 
ATOM     24  C   UNL     1     -73.113 -36.603 -71.612  0.00  0.00    +0.000 C 
ATOM     25  O   UNL     1     -71.461 -36.890 -69.881  0.00  0.00    +0.000 OA
ATOM     26  N   UNL     1     -70.222 -37.447 -69.620  0.00  0.00    +0.000 NA
ENDBRANCH  20  21
ENDBRANCH  18  20
ENDBRANCH   2  18
TORSDOF 4
ENDMDL
