=
 OpenBabel09172510313D

 28 31  0  0  1  0  0  0  0  0999 V2000
  -55.6950  -42.7300  -76.7230 C   0  0  2  0  0  3  0  0  0  0  0  0
  -54.3640  -43.0720  -76.4140 N   0  0  0  0  0  0  0  0  0  0  0  0
  -53.3680  -42.0640  -76.2940 C   0  0  0  0  0  0  0  0  0  0  0  0
  -52.1470  -42.2670  -75.6240 C   0  0  0  0  0  0  0  0  0  0  0  0
  -51.8120  -43.8680  -74.6630 Br  0  0  0  0  0  0  0  0  0  0  0  0
  -51.1470  -41.2840  -75.6240 C   0  0  0  0  0  3  0  0  0  0  0  0
  -51.3730  -40.0670  -76.2780 C   0  0  0  0  0  3  0  0  0  0  0  0
  -52.5760  -39.8420  -76.9470 C   0  0  0  0  0  0  0  0  0  0  0  0
  -52.7850  -38.2830  -77.6590 Cl  0  0  0  0  0  0  0  0  0  0  0  0
  -53.5540  -40.8480  -76.9700 C   0  0  0  0  0  0  0  0  0  0  0  0
  -54.8190  -40.7340  -77.7220 C   0  0  0  0  0  0  0  0  0  0  0  0
  -54.9000  -40.0780  -78.7530 O   0  0  0  0  0  0  0  0  0  0  0  0
  -56.0020  -41.5160  -77.2320 C   0  0  2  0  0  3  0  0  0  0  0  0
  -54.3070  -43.7990  -75.6880 H   0  0  0  0  0  0  0  0  0  0  0  0
  -56.8960  -43.8580  -75.9680 S   0  0  2  0  0  0  0  0  0  0  0  0
  -57.6360  -44.4460  -77.1380 O   0  0  0  0  0  0  0  0  0  0  0  0
  -58.0950  -42.9020  -74.9920 C   0  0  0  0  0  2  0  0  0  0  0  0
  -55.9290  -40.8130  -70.8490 C   0  0  0  0  0  1  0  0  0  0  0  0
  -56.7050  -41.2670  -72.0180 C   0  0  0  0  0  0  0  0  0  0  0  0
  -56.5080  -42.2040  -73.0050 C   0  0  0  0  0  3  0  0  0  0  0  0
  -57.7040  -42.1860  -73.7560 C   0  0  0  0  0  0  0  0  0  0  0  0
  -58.5400  -41.2430  -73.2880 N   0  0  0  0  0  0  0  0  0  0  0  0
  -57.9110  -40.6730  -72.2010 O   0  0  0  0  0  0  0  0  0  0  0  0
  -57.2760  -40.7430  -77.2370 C   0  0  0  0  0  0  0  0  0  0  0  0
  -57.4880  -39.8930  -76.3890 O   0  0  0  0  0  0  0  0  0  0  0  0
  -58.2540  -40.9900  -78.3130 C   0  0  0  0  0  3  0  0  0  0  0  0
  -59.5560  -40.2310  -78.3200 C   0  0  0  0  0  2  0  0  0  0  0  0
  -59.5560  -41.7030  -78.0390 C   0  0  0  0  0  2  0  0  0  0  0  0
  1  2  1  0  0  0  0
  1 15  1  1  0  0  0
  2  3  1  0  0  0  0
  2 14  1  0  0  0  0
  3  4  1  0  0  0  0
  4  5  1  0  0  0  0
  6  4  2  0  0  0  0
  7  6  1  0  0  0  0
  8  7  2  0  0  0  0
  9  8  1  0  0  0  0
 10  8  1  0  0  0  0
 10  3  2  0  0  0  0
 11 13  1  0  0  0  0
 11 10  1  0  0  0  0
 12 11  2  0  0  0  0
 13 24  1  1  0  0  0
 13  1  1  0  0  0  0
 15 16  2  6  0  0  0
 15 17  1  0  0  0  0
 17 21  1  0  0  0  0
 19 18  1  0  0  0  0
 20 19  2  0  0  0  0
 21 22  2  0  0  0  0
 21 20  1  0  0  0  0
 22 23  1  0  0  0  0
 23 19  1  0  0  0  0
 24 25  2  0  0  0  0
 26 28  1  0  0  0  0
 26 24  1  0  0  0  0
 27 26  1  0  0  0  0
 27 28  1  0  0  0  0
M  END
>  <MODEL>
1

>  <REMARK>
 VINA RESULT:    -7.499      0.000      0.000
 INTER + INTRA:         -10.581
 INTER:                  -9.690
 INTRA:                  -0.891
 UNBOUND:                -0.891
  Name = 
  6 active torsions:
  status: ('A' for Active; 'I' for Inactive)
    1  A    between atoms: C_1  and  C_2
    2  A    between atoms: C_4  and  C_5
    3  A    between atoms: C_5  and  S_6
    4  A    between atoms: S_6  and  C_8
    5  A    between atoms: C_20  and  C_21
    6  A    between atoms: C_21  and  C_23
                            x       y       z     vdW  Elec       q    Type
                         _______ _______ _______ _____ _____    ______ ____

>  <TORSDO>
F 5

$$$$
