REMARK VINA RESULT:    -6.775      3.901      5.015
REMARK INTER + INTRA:          -9.629
REMARK INTER:                  -8.447
REMARK INTRA:                  -1.182
REMARK UNBOUND:                -0.874
REMARK  Name = 
REMARK  8 active torsions:
REMARK  status: ('A' for Active; 'I' for Inactive)
REMARK    1  A    between atoms: C_1  and  C_2
REMARK    2  A    between atoms: C_4  and  C_5
REMARK    3  A    between atoms: C_5  and  S_6
REMARK    4  A    between atoms: S_6  and  C_8
REMARK    5  A    between atoms: C_20  and  C_21
REMARK    6  A    between atoms: C_21  and  C_23
REMARK    7  A    between atoms: C_23  and  C_24
REMARK    8  A    between atoms: C_23  and  C_25
REMARK                            x       y       z     vdW  Elec       q    Type
REMARK                         _______ _______ _______ _____ _____    ______ ____
ROOT
ATOM      1  C   UNL     1     -55.770 -41.801 -79.181  0.00  0.00    +0.000 A 
ATOM      2  N   UNL     1     -55.647 -41.074 -80.361  0.00  0.00    +0.000 N 
ATOM      3  C   UNL     1     -54.592 -41.306 -81.265  0.00  0.00    +0.000 A 
ATOM      4  C   UNL     1     -54.660 -40.911 -82.614  0.00  0.00    +0.000 A 
ATOM      5 BR   UNL     1     -56.255 -40.182 -83.337  0.00  0.00    +0.000 Br
ATOM      6  C   UNL     1     -53.569 -41.083 -83.470  0.00  0.00    +0.000 A 
ATOM      7  C   UNL     1     -52.395 -41.657 -82.991  0.00  0.00    +0.000 A 
ATOM      8  C   UNL     1     -52.308 -42.066 -81.648  0.00  0.00    +0.000 A 
ATOM      9 CL   UNL     1     -50.829 -42.830 -81.189  0.00  0.00    +0.000 Cl
ATOM     10  C   UNL     1     -53.407 -41.886 -80.783  0.00  0.00    +0.000 A 
ATOM     11  C   UNL     1     -53.404 -42.254 -79.343  0.00  0.00    +0.000 A 
ATOM     12  O   UNL     1     -52.344 -42.330 -78.730  0.00  0.00    +0.000 OA
ATOM     13  C   UNL     1     -54.742 -42.507 -78.653  0.00  0.00    +0.000 A 
ATOM     14  H   UNL     1     -56.547 -40.800 -80.778  0.00  0.00    +0.000 HD
ENDROOT
BRANCH   1  15
ATOM     15  S   UNL     1     -57.507 -41.844 -78.597  0.00  0.00    +0.000 S 
ATOM     16  O   UNL     1     -58.302 -41.431 -79.805  0.00  0.00    +0.000 OA
BRANCH  15  17
ATOM     17  C   UNL     1     -57.570 -40.493 -77.372  0.00  0.00    +0.000 C 
BRANCH  17  21
ATOM     18  C   UNL     1     -58.521 -41.390 -72.363  0.00  0.00    +0.000 C 
ATOM     19  C   UNL     1     -58.403 -41.267 -73.832  0.00  0.00    +0.000 A 
ATOM     20  C   UNL     1     -57.678 -40.470 -74.688  0.00  0.00    +0.000 A 
ATOM     21  C   UNL     1     -58.030 -40.914 -75.996  0.00  0.00    +0.000 A 
ATOM     22  N   UNL     1     -58.933 -41.906 -75.912  0.00  0.00    +0.000 NA
ATOM     23  O   UNL     1     -59.158 -42.125 -74.566  0.00  0.00    +0.000 OA
ENDBRANCH  17  21
ENDBRANCH  15  17
ENDBRANCH   1  15
BRANCH  13  24
ATOM     24  C   UNL     1     -54.745 -43.518 -77.528  0.00  0.00    +0.000 C 
ATOM     25  O   UNL     1     -54.749 -44.722 -77.778  0.00  0.00    +0.000 OA
BRANCH  24  26
ATOM     26  C   UNL     1     -54.810 -43.053 -76.072  0.00  0.00    +0.000 C 
ATOM     27  C   UNL     1     -55.892 -43.792 -75.290  0.00  0.00    +0.000 C 
ATOM     28  C   UNL     1     -53.458 -43.189 -75.367  0.00  0.00    +0.000 C 
ENDBRANCH  24  26
ENDBRANCH  13  24
TORSDOF 5
