REMARK VINA RESULT:    -6.035      4.714      7.108
REMARK INTER + INTRA:          -8.979
REMARK INTER:                  -8.036
REMARK INTRA:                  -0.943
REMARK UNBOUND:                -1.180
REMARK  Name = 
REMARK  6 active torsions:
REMARK  status: ('A' for Active; 'I' for Inactive)
REMARK    1  A    between atoms: C_1  and  C_2
REMARK    2  A    between atoms: C_2  and  C_4
REMARK    3  A    between atoms: C_5  and  S_6
REMARK    4  A    between atoms: S_6  and  C_8
REMARK    5  A    between atoms: C_8  and  C_9
REMARK    6  A    between atoms: C_12  and  C_13
REMARK                            x       y       z     vdW  Elec       q    Type
REMARK                         _______ _______ _______ _____ _____    ______ ____
ROOT
ATOM      1  C   UNL     1     -55.176 -42.849 -78.997  0.00  0.00    +0.000 A 
ATOM      2  C   UNL     1     -54.302 -41.828 -78.899  0.00  0.00    +0.000 A 
ATOM      3  N   UNL     1     -53.346 -41.753 -77.905  0.00  0.00    +0.000 N 
ATOM      4  C   UNL     1     -53.235 -42.674 -76.859  0.00  0.00    +0.000 A 
ATOM      5  C   UNL     1     -52.227 -42.560 -75.885  0.00  0.00    +0.000 A 
ATOM      6 BR   UNL     1     -50.999 -41.113 -75.907  0.00  0.00    +0.000 Br
ATOM      7  C   UNL     1     -52.096 -43.511 -74.872  0.00  0.00    +0.000 A 
ATOM      8  C   UNL     1     -52.977 -44.588 -74.819  0.00  0.00    +0.000 A 
ATOM      9  C   UNL     1     -53.983 -44.728 -75.782  0.00  0.00    +0.000 A 
ATOM     10 CL   UNL     1     -55.001 -46.113 -75.585  0.00  0.00    +0.000 Cl
ATOM     11  C   UNL     1     -54.105 -43.779 -76.815  0.00  0.00    +0.000 A 
ATOM     12  C   UNL     1     -55.135 -43.870 -77.891  0.00  0.00    +0.000 A 
ATOM     13  O   UNL     1     -55.983 -44.754 -77.862  0.00  0.00    +0.000 OA
ATOM     14  H   UNL     1     -52.839 -40.863 -77.845  0.00  0.00    +0.000 HD
ENDROOT
BRANCH   1  16
ATOM     15  C   UNL     1     -57.543 -42.387 -79.934  0.00  0.00    +0.000 C 
ATOM     16  C   UNL     1     -56.176 -43.011 -80.104  0.00  0.00    +0.000 C 
ATOM     17  O   UNL     1     -55.924 -43.674 -81.109  0.00  0.00    +0.000 OA
ENDBRANCH   1  16
BRANCH   2  18
ATOM     18  S   UNL     1     -54.368 -40.345 -79.955  0.00  0.00    +0.000 S 
ATOM     19  O   UNL     1     -53.402 -39.400 -79.286  0.00  0.00    +0.000 OA
BRANCH  18  20
ATOM     20  C   UNL     1     -53.567 -40.974 -81.473  0.00  0.00    +0.000 C 
BRANCH  20  21
ATOM     21  C   UNL     1     -54.374 -40.687 -82.727  0.00  0.00    +0.000 A 
ATOM     22  C   UNL     1     -55.611 -40.026 -82.656  0.00  0.00    +0.000 A 
ATOM     23  C   UNL     1     -56.351 -39.753 -83.811  0.00  0.00    +0.000 A 
ATOM     24  C   UNL     1     -55.858 -40.120 -85.066  0.00  0.00    +0.000 A 
ATOM     25  C   UNL     1     -54.620 -40.767 -85.151  0.00  0.00    +0.000 A 
ATOM     26  C   UNL     1     -53.887 -41.050 -83.993  0.00  0.00    +0.000 A 
BRANCH  24  27
ATOM     27  C   UNL     1     -56.617 -39.840 -86.255  0.00  0.00    +0.000 C 
ATOM     28  N   UNL     1     -57.229 -39.608 -87.212  0.00  0.00    +0.000 NA
ENDBRANCH  24  27
ENDBRANCH  20  21
ENDBRANCH  18  20
ENDBRANCH   2  18
TORSDOF 5
