REMARK VINA RESULT:    -5.676     12.666     14.252
REMARK INTER + INTRA:          -8.245
REMARK INTER:                  -7.460
REMARK INTRA:                  -0.785
REMARK UNBOUND:                -0.910
REMARK  Name = 
REMARK  6 active torsions:
REMARK  status: ('A' for Active; 'I' for Inactive)
REMARK    1  A    between atoms: C_1  and  C_2
REMARK    2  A    between atoms: C_4  and  C_5
REMARK    3  A    between atoms: C_5  and  S_6
REMARK    4  A    between atoms: S_6  and  C_8
REMARK    5  A    between atoms: C_20  and  C_21
REMARK    6  A    between atoms: C_21  and  C_23
REMARK                            x       y       z     vdW  Elec       q    Type
REMARK                         _______ _______ _______ _____ _____    ______ ____
ROOT
ATOM      1  C   UNL     1     -56.314 -43.725 -78.407  0.00  0.00    +0.000 A 
ATOM      2  N   UNL     1     -55.609 -42.515 -78.552  0.00  0.00    +0.000 N 
ATOM      3  C   UNL     1     -54.367 -42.317 -77.887  0.00  0.00    +0.000 A 
ATOM      4  C   UNL     1     -53.437 -41.335 -78.276  0.00  0.00    +0.000 A 
ATOM      5 BR   UNL     1     -53.697 -40.307 -79.849  0.00  0.00    +0.000 Br
ATOM      6  C   UNL     1     -52.275 -41.100 -77.526  0.00  0.00    +0.000 A 
ATOM      7  C   UNL     1     -52.019 -41.871 -76.387  0.00  0.00    +0.000 A 
ATOM      8  C   UNL     1     -52.926 -42.851 -75.984  0.00  0.00    +0.000 A 
ATOM      9 CL   UNL     1     -52.482 -43.796 -74.608  0.00  0.00    +0.000 Cl
ATOM     10  C   UNL     1     -54.102 -43.052 -76.722  0.00  0.00    +0.000 A 
ATOM     11  C   UNL     1     -55.157 -44.004 -76.325  0.00  0.00    +0.000 A 
ATOM     12  O   UNL     1     -55.375 -44.274 -75.150  0.00  0.00    +0.000 OA
ATOM     13  C   UNL     1     -56.024 -44.583 -77.404  0.00  0.00    +0.000 A 
ATOM     14  H   UNL     1     -55.618 -42.173 -79.523  0.00  0.00    +0.000 HD
ENDROOT
BRANCH   1  15
ATOM     15  S   UNL     1     -57.255 -44.165 -79.892  0.00  0.00    +0.000 S 
ATOM     16  O   UNL     1     -56.259 -44.882 -80.761  0.00  0.00    +0.000 OA
BRANCH  15  17
ATOM     17  C   UNL     1     -57.751 -42.652 -80.766  0.00  0.00    +0.000 C 
BRANCH  17  21
ATOM     18  C   UNL     1     -61.532 -39.402 -79.602  0.00  0.00    +0.000 C 
ATOM     19  C   UNL     1     -60.413 -40.353 -79.727  0.00  0.00    +0.000 A 
ATOM     20  C   UNL     1     -59.822 -41.020 -80.775  0.00  0.00    +0.000 A 
ATOM     21  C   UNL     1     -58.730 -41.701 -80.193  0.00  0.00    +0.000 A 
ATOM     22  N   UNL     1     -58.711 -41.510 -78.862  0.00  0.00    +0.000 NA
ATOM     23  O   UNL     1     -59.764 -40.665 -78.577  0.00  0.00    +0.000 OA
ENDBRANCH  17  21
ENDBRANCH  15  17
ENDBRANCH   1  15
BRANCH  13  24
ATOM     24  C   UNL     1     -56.263 -46.048 -77.260  0.00  0.00    +0.000 C 
ATOM     25  O   UNL     1     -57.387 -46.505 -77.365  0.00  0.00    +0.000 OA
BRANCH  24  26
ATOM     26  C   UNL     1     -55.108 -46.938 -77.034  0.00  0.00    +0.000 C 
ATOM     27  C   UNL     1     -55.333 -48.421 -76.891  0.00  0.00    +0.000 C 
ATOM     28  C   UNL     1     -54.893 -47.620 -75.704  0.00  0.00    +0.000 C 
ENDBRANCH  24  26
ENDBRANCH  13  24
TORSDOF 5
